/*--------------------------------*- C++ -*----------------------------------*\
  =========                 |
  \\      /  F ield         | OpenFOAM: The Open Source CFD Toolbox
   \\    /   O peration     | Website:  https://openfoam.org
    \\  /    A nd           | Version:  6
     \\/     M anipulation  |
\*---------------------------------------------------------------------------*/
FoamFile
{
    version     2.0;
    format      ascii;
    class       dictionary;
    object      fvSolution;
}
// * * * * * * * * * * * * * * * * * * * * * * * * * * * * * * * * * * * * * //

solvers
{
    rho
    {
        solver          PCG;
        preconditioner  DIC;
        tolerance       1e-7;
        relTol          0.5;
    }

    rhoFinal
    {
        $rho;
        tolerance       1e-7;
        relTol          0;
    }

    p_rgh
    {
        solver           GAMG;
        tolerance        1e-7;
        relTol           0.01;
        smoother         GaussSeidel;
    }

    p_rghFinal
    {
        $p_rgh;
        tolerance        1e-7;
        relTol           0;
    }

    Yi
    {
        solver           PBiCGStab;
        preconditioner   diagonal;
        tolerance        1e-7;
        relTol           0.5;

      //  maxIter          100;
    }
    YiFinal
    {
        $U;
        tolerance        1e-7;
        relTol           0;

     //  maxIter          100;
    }

    Y_mir
    {
        solver           PBiCGStab;
        preconditioner   diagonal;
        tolerance        1e-7;
        relTol           0.5;

      //  maxIter          100;
    }
    Y_mirFinal
    {
        $U;
        tolerance        1e-7;
        relTol           0;

     //  maxIter          100;
    }

    "(U|h|k|epsilon|R|C|Yi_mir|TNiu)"
    {

        solver           PBiCGStab;
        preconditioner   diagonal;
        tolerance        1e-7;
        relTol           0.1;

/*
        solver          smoothSolver;
        smoother        symGaussSeidel;
        tolerance       1e-05;
        relTol          0.1;
*/
    }

    "(U|h|k|epsilon|R|C|Yi_mir|TNiu)Final"
    {
        $U;
        tolerance        1e-7;
        relTol           0;
    }

    "(Fai_ion|Fai_ele)"
    {
        solver          smoothSolver;
        smoother        symGaussSeidel;
        tolerance       1e-05;
        relTol          0.0001;

    }

    "(Fai_ion|Fai_ele)Final"
    {
        $U;
        tolerance        1e-7;
        relTol           0;
    }

    lamda
    {
        solver           PBiCGStab;
        preconditioner   DILU;
        tolerance        1e-7;
        relTol           0.5;

      //  maxIter          100;
    }
    lamdaFinal
    {
        $U;
        tolerance        1e-7;
        relTol           0;

     //  maxIter          100;
    }

    pl
    {
        solver          smoothSolver;
        smoother        symGaussSeidel;
        tolerance       1e-05;
        relTol          0.0001;

    }

    plFinal
    {
        $U;
        tolerance        1e-7;
        relTol           0;
    }


} 


PIMPLE
{
    momentumPredictor   yes;
    nNonOrthogonalCorrectors 0;
    nCorrectors          2;
    nOuterCorrectors    0;

    residualControl
    {
        rho             1e-12;
        p_rgh           1e-12;
        U               1e-12;
        h               1e-12;
        e               1e-12;
        Yi              1e-12;
        Fai_ion         1e-12;
        Fai_ele         1e-12;
        lamda           1e-12;
        C               1e-12;

       
    }

    outerCorrectorResidualControl
    {
        "(rho|p_rgh|U|Yi|C|Fai_ion|Fai_ele|lamda)"
        {
            relTol          0;
            tolerance       1e-6;
        }
    }


   relaxationFactors
   {
       fields
       {
           "rho.*"         0.5;
           "p_rgh.*"       0.3;
       }
       equations
       {
           U               0.5;
           Yi              0.5;
           h               0.5;
           Fai_ion         0.9;
           Fai_ele         0.9;
           lamda           0.3;
           pl              0.3;
           C               1;
           
       }
    }
}

relaxationFactors
{
    fields
    {
        "rho.*"         0.5;
        "p_rgh.*"       0.3;
    }
    equations
    {
        "U.*"           0.5;
        "(h|e).*"       0.5;
        Fai_ion         0.9;
        Fai_ele         0.9;
        lamda           0.3;
        pl              0.3;
    }
}




}

// ************************************************************************* //
