/*--------------------------------*- C++ -*----------------------------------*\
  =========                 |
  \\      /  F ield         | OpenFOAM: The Open Source CFD Toolbox
   \\    /   O peration     | Website:  https://openfoam.org
    \\  /    A nd           | Version:  6
     \\/     M anipulation  |
\*---------------------------------------------------------------------------*/
FoamFile
{
    version     2.0;
    format      ascii;
    class       polyBoundaryMesh;
    location    "constant/region641/polyMesh";
    object      boundary;
}
// * * * * * * * * * * * * * * * * * * * * * * * * * * * * * * * * * * * * * //

2
(
    region641_to_region14
    {
        type            mappedWall;
        inGroups        1(wall);
        nFaces          7;
        startFace       1;
        sampleMode      nearestPatchFace;
        sampleRegion    region14;
        samplePatch     region14_to_region641;
    }
    region641_to_pore
    {
        type            mappedWall;
        inGroups        1(wall);
        nFaces          3;
        startFace       8;
        sampleMode      nearestPatchFace;
        sampleRegion    pore;
        samplePatch     pore_to_region641;
    }
)

// ************************************************************************* //
