/*--------------------------------*- C++ -*----------------------------------*\
  =========                 |
  \\      /  F ield         | OpenFOAM: The Open Source CFD Toolbox
   \\    /   O peration     | Website:  https://openfoam.org
    \\  /    A nd           | Version:  6
     \\/     M anipulation  |
\*---------------------------------------------------------------------------*/
FoamFile
{
    version     2.0;
    format      ascii;
    class       polyBoundaryMesh;
    location    "constant/region379/polyMesh";
    object      boundary;
}
// * * * * * * * * * * * * * * * * * * * * * * * * * * * * * * * * * * * * * //

2
(
    region379_to_YSZ
    {
        type            mappedWall;
        inGroups        1(wall);
        nFaces          15;
        startFace       3;
        sampleMode      nearestPatchFace;
        sampleRegion    YSZ;
        samplePatch     YSZ_to_region379;
    }
    region379_to_pore
    {
        type            mappedWall;
        inGroups        1(wall);
        nFaces          3;
        startFace       18;
        sampleMode      nearestPatchFace;
        sampleRegion    pore;
        samplePatch     pore_to_region379;
    }
)

// ************************************************************************* //
