/*--------------------------------*- C++ -*----------------------------------*\
  =========                 |
  \\      /  F ield         | OpenFOAM: The Open Source CFD Toolbox
   \\    /   O peration     | Website:  https://openfoam.org
    \\  /    A nd           | Version:  6
     \\/     M anipulation  |
\*---------------------------------------------------------------------------*/
FoamFile
{
    version     2.0;
    format      ascii;
    class       volScalarField;
    location    "0/region782";
    object      cellToRegion;
}
// * * * * * * * * * * * * * * * * * * * * * * * * * * * * * * * * * * * * * //

dimensions      [0 0 0 0 0 0 0];

internalField   uniform 784;

boundaryField
{
    region782_to_region792
    {
        type            calculated;
        value           uniform 0;
    }
    region782_to_region395
    {
        type            calculated;
        value           uniform 0;
    }
    region782_to_Ni
    {
        type            calculated;
        value           uniform 0;
    }
}


// ************************************************************************* //
