/*--------------------------------*- C++ -*----------------------------------*\
  =========                 |
  \\      /  F ield         | OpenFOAM: The Open Source CFD Toolbox
   \\    /   O peration     | Website:  https://openfoam.org
    \\  /    A nd           | Version:  6
     \\/     M anipulation  |
\*---------------------------------------------------------------------------*/
FoamFile
{
    version     2.0;
    format      ascii;
    class       polyBoundaryMesh;
    location    "constant/region187/polyMesh";
    object      boundary;
}
// * * * * * * * * * * * * * * * * * * * * * * * * * * * * * * * * * * * * * //

7
(
    symmetry_front
    {
        type            patch;
        nFaces          130;
        startFace       1278;
    }
    region187_to_Ni
    {
        type            mappedWall;
        inGroups        1(wall);
        nFaces          191;
        startFace       1408;
        sampleMode      nearestPatchFace;
        sampleRegion    Ni;
        samplePatch     Ni_to_region187;
    }
    region187_to_region350
    {
        type            mappedWall;
        inGroups        1(wall);
        nFaces          1;
        startFace       1599;
        sampleMode      nearestPatchFace;
        sampleRegion    region350;
        samplePatch     region350_to_region187;
    }
    region187_to_region309
    {
        type            mappedWall;
        inGroups        1(wall);
        nFaces          1;
        startFace       1600;
        sampleMode      nearestPatchFace;
        sampleRegion    region309;
        samplePatch     region309_to_region187;
    }
    region187_to_region346
    {
        type            mappedWall;
        inGroups        1(wall);
        nFaces          1;
        startFace       1601;
        sampleMode      nearestPatchFace;
        sampleRegion    region346;
        samplePatch     region346_to_region187;
    }
    region187_to_region291
    {
        type            mappedWall;
        inGroups        1(wall);
        nFaces          2;
        startFace       1602;
        sampleMode      nearestPatchFace;
        sampleRegion    region291;
        samplePatch     region291_to_region187;
    }
    region187_to_YSZ
    {
        type            mappedWall;
        inGroups        1(wall);
        nFaces          184;
        startFace       1604;
        sampleMode      nearestPatchFace;
        sampleRegion    YSZ;
        samplePatch     YSZ_to_region187;
    }
)

// ************************************************************************* //
