/*--------------------------------*- C++ -*----------------------------------*\
  =========                 |
  \\      /  F ield         | OpenFOAM: The Open Source CFD Toolbox
   \\    /   O peration     | Website:  https://openfoam.org
    \\  /    A nd           | Version:  6
     \\/     M anipulation  |
\*---------------------------------------------------------------------------*/
FoamFile
{
    version     2.0;
    format      ascii;
    class       polyBoundaryMesh;
    location    "constant/region748/polyMesh";
    object      boundary;
}
// * * * * * * * * * * * * * * * * * * * * * * * * * * * * * * * * * * * * * //

3
(
    symmetry_left
    {
        type            patch;
        nFaces          1;
        startFace       0;
    }
    region748_to_YSZ
    {
        type            mappedWall;
        inGroups        1(wall);
        nFaces          4;
        startFace       1;
        sampleMode      nearestPatchFace;
        sampleRegion    YSZ;
        samplePatch     YSZ_to_region748;
    }
    region748_to_region395
    {
        type            mappedWall;
        inGroups        1(wall);
        nFaces          1;
        startFace       5;
        sampleMode      nearestPatchFace;
        sampleRegion    region395;
        samplePatch     region395_to_region748;
    }
)

// ************************************************************************* //
