/*--------------------------------*- C++ -*----------------------------------*\
  =========                 |
  \\      /  F ield         | OpenFOAM: The Open Source CFD Toolbox
   \\    /   O peration     | Website:  https://openfoam.org
    \\  /    A nd           | Version:  6
     \\/     M anipulation  |
\*---------------------------------------------------------------------------*/
FoamFile
{
    version     2.0;
    format      ascii;
    class       volScalarField;
    location    "0/YSZ";
    object      cellToRegion;
}
// * * * * * * * * * * * * * * * * * * * * * * * * * * * * * * * * * * * * * //

dimensions      [0 0 0 0 0 0 0];

internalField   uniform 0;

boundaryField
{
    symmetry_front
    {
        type            zeroGradient;
    }
    symmetry_back
    {
        type            zeroGradient;
    }
    symmetry_left
    {
        type            zeroGradient;
    }
    symmetry_right
    {
        type            zeroGradient;
    }
    bottom
    {
        type            zeroGradient;
    }
    YSZ_to_region82
    {
        type            calculated;
        value           uniform 0;
    }
    YSZ_to_region440
    {
        type            calculated;
        value           uniform 0;
    }
    YSZ_to_region204
    {
        type            calculated;
        value           uniform 0;
    }
    YSZ_to_region101
    {
        type            calculated;
        value           uniform 0;
    }
    YSZ_to_region48
    {
        type            calculated;
        value           uniform 0;
    }
    YSZ_to_region689
    {
        type            calculated;
        value           uniform 0;
    }
    YSZ_to_region419
    {
        type            calculated;
        value           uniform 0;
    }
    YSZ_to_region166
    {
        type            calculated;
        value           uniform 0;
    }
    YSZ_to_region405
    {
        type            calculated;
        value           uniform 0;
    }
    YSZ_to_region694
    {
        type            calculated;
        value           uniform 0;
    }
    YSZ_to_region667
    {
        type            calculated;
        value           uniform 0;
    }
    YSZ_to_region228
    {
        type            calculated;
        value           uniform 0;
    }
    YSZ_to_region642
    {
        type            calculated;
        value           uniform 0;
    }
    YSZ_to_region436
    {
        type            calculated;
        value           uniform 0;
    }
    YSZ_to_region602
    {
        type            calculated;
        value           uniform 0;
    }
    YSZ_to_region560
    {
        type            calculated;
        value           uniform 0;
    }
    YSZ_to_region259
    {
        type            calculated;
        value           uniform 0;
    }
    YSZ_to_region249
    {
        type            calculated;
        value           uniform 0;
    }
    YSZ_to_region519
    {
        type            calculated;
        value           uniform 0;
    }
    YSZ_to_region144
    {
        type            calculated;
        value           uniform 0;
    }
    YSZ_to_region352
    {
        type            calculated;
        value           uniform 0;
    }
    YSZ_to_region662
    {
        type            calculated;
        value           uniform 0;
    }
    YSZ_to_region577
    {
        type            calculated;
        value           uniform 0;
    }
    YSZ_to_region117
    {
        type            calculated;
        value           uniform 0;
    }
    YSZ_to_region279
    {
        type            calculated;
        value           uniform 0;
    }
    YSZ_to_region164
    {
        type            calculated;
        value           uniform 0;
    }
    YSZ_to_region296
    {
        type            calculated;
        value           uniform 0;
    }
    YSZ_to_region621
    {
        type            calculated;
        value           uniform 0;
    }
    YSZ_to_region441
    {
        type            calculated;
        value           uniform 0;
    }
    YSZ_to_region596
    {
        type            calculated;
        value           uniform 0;
    }
    YSZ_to_region206
    {
        type            calculated;
        value           uniform 0;
    }
    YSZ_to_region49
    {
        type            calculated;
        value           uniform 0;
    }
    YSZ_to_region600
    {
        type            calculated;
        value           uniform 0;
    }
    YSZ_to_region313
    {
        type            calculated;
        value           uniform 0;
    }
    YSZ_to_region275
    {
        type            calculated;
        value           uniform 0;
    }
    YSZ_to_region196
    {
        type            calculated;
        value           uniform 0;
    }
    YSZ_to_region306
    {
        type            calculated;
        value           uniform 0;
    }
    YSZ_to_region57
    {
        type            calculated;
        value           uniform 0;
    }
    YSZ_to_region418
    {
        type            calculated;
        value           uniform 0;
    }
    YSZ_to_region51
    {
        type            calculated;
        value           uniform 0;
    }
    YSZ_to_region239
    {
        type            calculated;
        value           uniform 0;
    }
    YSZ_to_region356
    {
        type            calculated;
        value           uniform 0;
    }
    YSZ_to_region707
    {
        type            calculated;
        value           uniform 0;
    }
    YSZ_to_region714
    {
        type            calculated;
        value           uniform 0;
    }
    YSZ_to_region472
    {
        type            calculated;
        value           uniform 0;
    }
    YSZ_to_region142
    {
        type            calculated;
        value           uniform 0;
    }
    YSZ_to_region305
    {
        type            calculated;
        value           uniform 0;
    }
    YSZ_to_region241
    {
        type            calculated;
        value           uniform 0;
    }
    YSZ_to_region425
    {
        type            calculated;
        value           uniform 0;
    }
    YSZ_to_region439
    {
        type            calculated;
        value           uniform 0;
    }
    YSZ_to_region139
    {
        type            calculated;
        value           uniform 0;
    }
    YSZ_to_region657
    {
        type            calculated;
        value           uniform 0;
    }
    YSZ_to_region397
    {
        type            calculated;
        value           uniform 0;
    }
    YSZ_to_region92
    {
        type            calculated;
        value           uniform 0;
    }
    YSZ_to_region554
    {
        type            calculated;
        value           uniform 0;
    }
    YSZ_to_region369
    {
        type            calculated;
        value           uniform 0;
    }
    YSZ_to_region669
    {
        type            calculated;
        value           uniform 0;
    }
    YSZ_to_region478
    {
        type            calculated;
        value           uniform 0;
    }
    YSZ_to_region243
    {
        type            calculated;
        value           uniform 0;
    }
    YSZ_to_region581
    {
        type            calculated;
        value           uniform 0;
    }
    YSZ_to_region320
    {
        type            calculated;
        value           uniform 0;
    }
    YSZ_to_region688
    {
        type            calculated;
        value           uniform 0;
    }
    YSZ_to_region354
    {
        type            calculated;
        value           uniform 0;
    }
    YSZ_to_region590
    {
        type            calculated;
        value           uniform 0;
    }
    YSZ_to_region146
    {
        type            calculated;
        value           uniform 0;
    }
    YSZ_to_region349
    {
        type            calculated;
        value           uniform 0;
    }
    YSZ_to_region650
    {
        type            calculated;
        value           uniform 0;
    }
    YSZ_to_region430
    {
        type            calculated;
        value           uniform 0;
    }
    YSZ_to_region318
    {
        type            calculated;
        value           uniform 0;
    }
    YSZ_to_region459
    {
        type            calculated;
        value           uniform 0;
    }
    YSZ_to_region321
    {
        type            calculated;
        value           uniform 0;
    }
    YSZ_to_region663
    {
        type            calculated;
        value           uniform 0;
    }
    YSZ_to_region379
    {
        type            calculated;
        value           uniform 0;
    }
    YSZ_to_region701
    {
        type            calculated;
        value           uniform 0;
    }
    YSZ_to_region162
    {
        type            calculated;
        value           uniform 0;
    }
    YSZ_to_region629
    {
        type            calculated;
        value           uniform 0;
    }
    YSZ_to_region575
    {
        type            calculated;
        value           uniform 0;
    }
    YSZ_to_region237
    {
        type            calculated;
        value           uniform 0;
    }
    YSZ_to_region211
    {
        type            calculated;
        value           uniform 0;
    }
    YSZ_to_region233
    {
        type            calculated;
        value           uniform 0;
    }
    YSZ_to_region636
    {
        type            calculated;
        value           uniform 0;
    }
    YSZ_to_region680
    {
        type            calculated;
        value           uniform 0;
    }
    YSZ_to_region681
    {
        type            calculated;
        value           uniform 0;
    }
    YSZ_to_region371
    {
        type            calculated;
        value           uniform 0;
    }
    YSZ_to_region705
    {
        type            calculated;
        value           uniform 0;
    }
    YSZ_to_region345
    {
        type            calculated;
        value           uniform 0;
    }
    YSZ_to_region226
    {
        type            calculated;
        value           uniform 0;
    }
    YSZ_to_region255
    {
        type            calculated;
        value           uniform 0;
    }
    YSZ_to_region626
    {
        type            calculated;
        value           uniform 0;
    }
    YSZ_to_region685
    {
        type            calculated;
        value           uniform 0;
    }
    YSZ_to_region529
    {
        type            calculated;
        value           uniform 0;
    }
    YSZ_to_region537
    {
        type            calculated;
        value           uniform 0;
    }
    YSZ_to_region47
    {
        type            calculated;
        value           uniform 0;
    }
    YSZ_to_region643
    {
        type            calculated;
        value           uniform 0;
    }
    YSZ_to_region628
    {
        type            calculated;
        value           uniform 0;
    }
    YSZ_to_region136
    {
        type            calculated;
        value           uniform 0;
    }
    YSZ_to_region578
    {
        type            calculated;
        value           uniform 0;
    }
    YSZ_to_region462
    {
        type            calculated;
        value           uniform 0;
    }
    YSZ_to_region470
    {
        type            calculated;
        value           uniform 0;
    }
    YSZ_to_region580
    {
        type            calculated;
        value           uniform 0;
    }
    YSZ_to_region12
    {
        type            calculated;
        value           uniform 0;
    }
    YSZ_to_region59
    {
        type            calculated;
        value           uniform 0;
    }
    YSZ_to_region622
    {
        type            calculated;
        value           uniform 0;
    }
    YSZ_to_region489
    {
        type            calculated;
        value           uniform 0;
    }
    YSZ_to_region111
    {
        type            calculated;
        value           uniform 0;
    }
    YSZ_to_region64
    {
        type            calculated;
        value           uniform 0;
    }
    YSZ_to_region651
    {
        type            calculated;
        value           uniform 0;
    }
    YSZ_to_region638
    {
        type            calculated;
        value           uniform 0;
    }
    YSZ_to_region119
    {
        type            calculated;
        value           uniform 0;
    }
    YSZ_to_region518
    {
        type            calculated;
        value           uniform 0;
    }
    YSZ_to_region359
    {
        type            calculated;
        value           uniform 0;
    }
    YSZ_to_region568
    {
        type            calculated;
        value           uniform 0;
    }
    YSZ_to_region6
    {
        type            calculated;
        value           uniform 0;
    }
    YSZ_to_region709
    {
        type            calculated;
        value           uniform 0;
    }
    YSZ_to_region539
    {
        type            calculated;
        value           uniform 0;
    }
    YSZ_to_region334
    {
        type            calculated;
        value           uniform 0;
    }
    YSZ_to_region328
    {
        type            calculated;
        value           uniform 0;
    }
    YSZ_to_region42
    {
        type            calculated;
        value           uniform 0;
    }
    YSZ_to_region219
    {
        type            calculated;
        value           uniform 0;
    }
    YSZ_to_region56
    {
        type            calculated;
        value           uniform 0;
    }
    YSZ_to_region631
    {
        type            calculated;
        value           uniform 0;
    }
    YSZ_to_region591
    {
        type            calculated;
        value           uniform 0;
    }
    YSZ_to_region176
    {
        type            calculated;
        value           uniform 0;
    }
    YSZ_to_region303
    {
        type            calculated;
        value           uniform 0;
    }
    YSZ_to_region165
    {
        type            calculated;
        value           uniform 0;
    }
    YSZ_to_region84
    {
        type            calculated;
        value           uniform 0;
    }
    YSZ_to_region150
    {
        type            calculated;
        value           uniform 0;
    }
    YSZ_to_region466
    {
        type            calculated;
        value           uniform 0;
    }
    YSZ_to_region693
    {
        type            calculated;
        value           uniform 0;
    }
    YSZ_to_region640
    {
        type            calculated;
        value           uniform 0;
    }
    YSZ_to_region654
    {
        type            calculated;
        value           uniform 0;
    }
    YSZ_to_region449
    {
        type            calculated;
        value           uniform 0;
    }
    YSZ_to_region24
    {
        type            calculated;
        value           uniform 0;
    }
    YSZ_to_region4
    {
        type            calculated;
        value           uniform 0;
    }
    YSZ_to_region65
    {
        type            calculated;
        value           uniform 0;
    }
    YSZ_to_region593
    {
        type            calculated;
        value           uniform 0;
    }
    YSZ_to_region465
    {
        type            calculated;
        value           uniform 0;
    }
    YSZ_to_region509
    {
        type            calculated;
        value           uniform 0;
    }
    YSZ_to_region467
    {
        type            calculated;
        value           uniform 0;
    }
    YSZ_to_region143
    {
        type            calculated;
        value           uniform 0;
    }
    YSZ_to_region120
    {
        type            calculated;
        value           uniform 0;
    }
    YSZ_to_region415
    {
        type            calculated;
        value           uniform 0;
    }
    YSZ_to_region100
    {
        type            calculated;
        value           uniform 0;
    }
    YSZ_to_region388
    {
        type            calculated;
        value           uniform 0;
    }
    YSZ_to_region463
    {
        type            calculated;
        value           uniform 0;
    }
    YSZ_to_region530
    {
        type            calculated;
        value           uniform 0;
    }
    YSZ_to_region403
    {
        type            calculated;
        value           uniform 0;
    }
    YSZ_to_region363
    {
        type            calculated;
        value           uniform 0;
    }
    YSZ_to_region52
    {
        type            calculated;
        value           uniform 0;
    }
    YSZ_to_region287
    {
        type            calculated;
        value           uniform 0;
    }
    YSZ_to_region366
    {
        type            calculated;
        value           uniform 0;
    }
    YSZ_to_region619
    {
        type            calculated;
        value           uniform 0;
    }
    YSZ_to_region252
    {
        type            calculated;
        value           uniform 0;
    }
    YSZ_to_region646
    {
        type            calculated;
        value           uniform 0;
    }
    YSZ_to_region282
    {
        type            calculated;
        value           uniform 0;
    }
    YSZ_to_region163
    {
        type            calculated;
        value           uniform 0;
    }
    YSZ_to_region493
    {
        type            calculated;
        value           uniform 0;
    }
    YSZ_to_region426
    {
        type            calculated;
        value           uniform 0;
    }
    YSZ_to_region594
    {
        type            calculated;
        value           uniform 0;
    }
    YSZ_to_region364
    {
        type            calculated;
        value           uniform 0;
    }
    YSZ_to_region268
    {
        type            calculated;
        value           uniform 0;
    }
    YSZ_to_region260
    {
        type            calculated;
        value           uniform 0;
    }
    YSZ_to_region97
    {
        type            calculated;
        value           uniform 0;
    }
    YSZ_to_region618
    {
        type            calculated;
        value           uniform 0;
    }
    YSZ_to_region665
    {
        type            calculated;
        value           uniform 0;
    }
    YSZ_to_region102
    {
        type            calculated;
        value           uniform 0;
    }
    YSZ_to_region289
    {
        type            calculated;
        value           uniform 0;
    }
    YSZ_to_region212
    {
        type            calculated;
        value           uniform 0;
    }
    YSZ_to_region521
    {
        type            calculated;
        value           uniform 0;
    }
    YSZ_to_region7
    {
        type            calculated;
        value           uniform 0;
    }
    YSZ_to_region357
    {
        type            calculated;
        value           uniform 0;
    }
    YSZ_to_region633
    {
        type            calculated;
        value           uniform 0;
    }
    YSZ_to_region330
    {
        type            calculated;
        value           uniform 0;
    }
    YSZ_to_region408
    {
        type            calculated;
        value           uniform 0;
    }
    YSZ_to_membrane
    {
        type            calculated;
        value           uniform 0;
    }
    YSZ_to_region251
    {
        type            calculated;
        value           uniform 0;
    }
    YSZ_to_region125
    {
        type            calculated;
        value           uniform 0;
    }
    YSZ_to_region8
    {
        type            calculated;
        value           uniform 0;
    }
    YSZ_to_region508
    {
        type            calculated;
        value           uniform 0;
    }
    YSZ_to_region26
    {
        type            calculated;
        value           uniform 0;
    }
    YSZ_to_region190
    {
        type            calculated;
        value           uniform 0;
    }
    YSZ_to_region148
    {
        type            calculated;
        value           uniform 0;
    }
    YSZ_to_region248
    {
        type            calculated;
        value           uniform 0;
    }
    YSZ_to_region5
    {
        type            calculated;
        value           uniform 0;
    }
    YSZ_to_region235
    {
        type            calculated;
        value           uniform 0;
    }
    YSZ_to_region324
    {
        type            calculated;
        value           uniform 0;
    }
    YSZ_to_region17
    {
        type            calculated;
        value           uniform 0;
    }
    YSZ_to_region348
    {
        type            calculated;
        value           uniform 0;
    }
    YSZ_to_region464
    {
        type            calculated;
        value           uniform 0;
    }
    YSZ_to_region451
    {
        type            calculated;
        value           uniform 0;
    }
    YSZ_to_region149
    {
        type            calculated;
        value           uniform 0;
    }
    YSZ_to_region664
    {
        type            calculated;
        value           uniform 0;
    }
    YSZ_to_region532
    {
        type            calculated;
        value           uniform 0;
    }
    YSZ_to_region599
    {
        type            calculated;
        value           uniform 0;
    }
    YSZ_to_region69
    {
        type            calculated;
        value           uniform 0;
    }
    YSZ_to_region50
    {
        type            calculated;
        value           uniform 0;
    }
    YSZ_to_region687
    {
        type            calculated;
        value           uniform 0;
    }
    YSZ_to_region272
    {
        type            calculated;
        value           uniform 0;
    }
    YSZ_to_region395
    {
        type            calculated;
        value           uniform 0;
    }
    YSZ_to_region72
    {
        type            calculated;
        value           uniform 0;
    }
    YSZ_to_region435
    {
        type            calculated;
        value           uniform 0;
    }
    YSZ_to_region94
    {
        type            calculated;
        value           uniform 0;
    }
    YSZ_to_region214
    {
        type            calculated;
        value           uniform 0;
    }
    YSZ_to_region304
    {
        type            calculated;
        value           uniform 0;
    }
    YSZ_to_region513
    {
        type            calculated;
        value           uniform 0;
    }
    YSZ_to_region53
    {
        type            calculated;
        value           uniform 0;
    }
    YSZ_to_region500
    {
        type            calculated;
        value           uniform 0;
    }
    YSZ_to_region46
    {
        type            calculated;
        value           uniform 0;
    }
    YSZ_to_region460
    {
        type            calculated;
        value           uniform 0;
    }
    YSZ_to_region14
    {
        type            calculated;
        value           uniform 0;
    }
    YSZ_to_region690
    {
        type            calculated;
        value           uniform 0;
    }
    YSZ_to_region713
    {
        type            calculated;
        value           uniform 0;
    }
    YSZ_to_region88
    {
        type            calculated;
        value           uniform 0;
    }
    YSZ_to_region461
    {
        type            calculated;
        value           uniform 0;
    }
    YSZ_to_region103
    {
        type            calculated;
        value           uniform 0;
    }
    YSZ_to_region254
    {
        type            calculated;
        value           uniform 0;
    }
    YSZ_to_region134
    {
        type            calculated;
        value           uniform 0;
    }
    YSZ_to_region16
    {
        type            calculated;
        value           uniform 0;
    }
    YSZ_to_region429
    {
        type            calculated;
        value           uniform 0;
    }
    YSZ_to_region39
    {
        type            calculated;
        value           uniform 0;
    }
    YSZ_to_region543
    {
        type            calculated;
        value           uniform 0;
    }
    YSZ_to_region473
    {
        type            calculated;
        value           uniform 0;
    }
    YSZ_to_region597
    {
        type            calculated;
        value           uniform 0;
    }
    YSZ_to_region193
    {
        type            calculated;
        value           uniform 0;
    }
    YSZ_to_region471
    {
        type            calculated;
        value           uniform 0;
    }
    YSZ_to_region189
    {
        type            calculated;
        value           uniform 0;
    }
    YSZ_to_region273
    {
        type            calculated;
        value           uniform 0;
    }
    YSZ_to_region595
    {
        type            calculated;
        value           uniform 0;
    }
    YSZ_to_region167
    {
        type            calculated;
        value           uniform 0;
    }
    YSZ_to_region157
    {
        type            calculated;
        value           uniform 0;
    }
    YSZ_to_region277
    {
        type            calculated;
        value           uniform 0;
    }
    YSZ_to_region456
    {
        type            calculated;
        value           uniform 0;
    }
    YSZ_to_region675
    {
        type            calculated;
        value           uniform 0;
    }
    YSZ_to_region474
    {
        type            calculated;
        value           uniform 0;
    }
    YSZ_to_region205
    {
        type            calculated;
        value           uniform 0;
    }
    YSZ_to_region656
    {
        type            calculated;
        value           uniform 0;
    }
    YSZ_to_region512
    {
        type            calculated;
        value           uniform 0;
    }
    YSZ_to_region108
    {
        type            calculated;
        value           uniform 0;
    }
    YSZ_to_region498
    {
        type            calculated;
        value           uniform 0;
    }
    YSZ_to_region344
    {
        type            calculated;
        value           uniform 0;
    }
    YSZ_to_region54
    {
        type            calculated;
        value           uniform 0;
    }
    YSZ_to_region186
    {
        type            calculated;
        value           uniform 0;
    }
    YSZ_to_region115
    {
        type            calculated;
        value           uniform 0;
    }
    YSZ_to_region123
    {
        type            calculated;
        value           uniform 0;
    }
    YSZ_to_region564
    {
        type            calculated;
        value           uniform 0;
    }
    YSZ_to_region708
    {
        type            calculated;
        value           uniform 0;
    }
    YSZ_to_region641
    {
        type            calculated;
        value           uniform 0;
    }
    YSZ_to_region297
    {
        type            calculated;
        value           uniform 0;
    }
    YSZ_to_region298
    {
        type            calculated;
        value           uniform 0;
    }
    YSZ_to_region661
    {
        type            calculated;
        value           uniform 0;
    }
    YSZ_to_region674
    {
        type            calculated;
        value           uniform 0;
    }
    YSZ_to_region655
    {
        type            calculated;
        value           uniform 0;
    }
    YSZ_to_region202
    {
        type            calculated;
        value           uniform 0;
    }
    YSZ_to_region637
    {
        type            calculated;
        value           uniform 0;
    }
    YSZ_to_region372
    {
        type            calculated;
        value           uniform 0;
    }
    YSZ_to_region503
    {
        type            calculated;
        value           uniform 0;
    }
    YSZ_to_region155
    {
        type            calculated;
        value           uniform 0;
    }
    YSZ_to_region565
    {
        type            calculated;
        value           uniform 0;
    }
    YSZ_to_region525
    {
        type            calculated;
        value           uniform 0;
    }
    YSZ_to_region511
    {
        type            calculated;
        value           uniform 0;
    }
    YSZ_to_region510
    {
        type            calculated;
        value           uniform 0;
    }
    YSZ_to_region130
    {
        type            calculated;
        value           uniform 0;
    }
    YSZ_to_region506
    {
        type            calculated;
        value           uniform 0;
    }
    YSZ_to_region501
    {
        type            calculated;
        value           uniform 0;
    }
    YSZ_to_region77
    {
        type            calculated;
        value           uniform 0;
    }
    YSZ_to_region269
    {
        type            calculated;
        value           uniform 0;
    }
    YSZ_to_region428
    {
        type            calculated;
        value           uniform 0;
    }
    YSZ_to_region567
    {
        type            calculated;
        value           uniform 0;
    }
    YSZ_to_region342
    {
        type            calculated;
        value           uniform 0;
    }
    YSZ_to_region195
    {
        type            calculated;
        value           uniform 0;
    }
    YSZ_to_region158
    {
        type            calculated;
        value           uniform 0;
    }
    YSZ_to_region276
    {
        type            calculated;
        value           uniform 0;
    }
    YSZ_to_region294
    {
        type            calculated;
        value           uniform 0;
    }
    YSZ_to_region514
    {
        type            calculated;
        value           uniform 0;
    }
    YSZ_to_region699
    {
        type            calculated;
        value           uniform 0;
    }
    YSZ_to_region210
    {
        type            calculated;
        value           uniform 0;
    }
    YSZ_to_region336
    {
        type            calculated;
        value           uniform 0;
    }
    YSZ_to_region598
    {
        type            calculated;
        value           uniform 0;
    }
    YSZ_to_region160
    {
        type            calculated;
        value           uniform 0;