/*--------------------------------*- C++ -*----------------------------------*\
  =========                 |
  \\      /  F ield         | OpenFOAM: The Open Source CFD Toolbox
   \\    /   O peration     | Website:  https://openfoam.org
    \\  /    A nd           | Version:  6
     \\/     M anipulation  |
\*---------------------------------------------------------------------------*/
FoamFile
{
    version     2.0;
    format      ascii;
    class       polyBoundaryMesh;
    location    "constant/region419/polyMesh";
    object      boundary;
}
// * * * * * * * * * * * * * * * * * * * * * * * * * * * * * * * * * * * * * //

3
(
    symmetry_right
    {
        type            patch;
        nFaces          4;
        startFace       3;
    }
    region419_to_YSZ
    {
        type            mappedWall;
        inGroups        1(wall);
        nFaces          4;
        startFace       7;
        sampleMode      nearestPatchFace;
        sampleRegion    YSZ;
        samplePatch     YSZ_to_region419;
    }
    region419_to_pore
    {
        type            mappedWall;
        inGroups        1(wall);
        nFaces          10;
        startFace       11;
        sampleMode      nearestPatchFace;
        sampleRegion    pore;
        samplePatch     pore_to_region419;
    }
)

// ************************************************************************* //
