/*--------------------------------*- C++ -*----------------------------------*\
  =========                 |
  \\      /  F ield         | OpenFOAM: The Open Source CFD Toolbox
   \\    /   O peration     | Website:  https://openfoam.org
    \\  /    A nd           | Version:  6
     \\/     M anipulation  |
\*---------------------------------------------------------------------------*/
FoamFile
{
    version     2.0;
    format      ascii;
    class       polyBoundaryMesh;
    location    "constant/region794/polyMesh";
    object      boundary;
}
// * * * * * * * * * * * * * * * * * * * * * * * * * * * * * * * * * * * * * //

3
(
    region794_to_membrane
    {
        type            mappedWall;
        inGroups        1(wall);
        nFaces          1;
        startFace       2;
        sampleMode      nearestPatchFace;
        sampleRegion    membrane;
        samplePatch     membrane_to_region794;
    }
    region794_to_region395
    {
        type            mappedWall;
        inGroups        1(wall);
        nFaces          6;
        startFace       3;
        sampleMode      nearestPatchFace;
        sampleRegion    region395;
        samplePatch     region395_to_region794;
    }
    region794_to_YSZ
    {
        type            mappedWall;
        inGroups        1(wall);
        nFaces          7;
        startFace       9;
        sampleMode      nearestPatchFace;
        sampleRegion    YSZ;
        samplePatch     YSZ_to_region794;
    }
)

// ************************************************************************* //
