/*--------------------------------*- C++ -*----------------------------------*\
  =========                 |
  \\      /  F ield         | OpenFOAM: The Open Source CFD Toolbox
   \\    /   O peration     | Website:  https://openfoam.org
    \\  /    A nd           | Version:  6
     \\/     M anipulation  |
\*---------------------------------------------------------------------------*/
FoamFile
{
    version     2.0;
    format      ascii;
    class       volScalarField;
    location    "0/region914";
    object      cellToRegion;
}
// * * * * * * * * * * * * * * * * * * * * * * * * * * * * * * * * * * * * * //

dimensions      [0 0 0 0 0 0 0];

internalField   uniform 916;

boundaryField
{
    region914_to_region957
    {
        type            calculated;
        value           uniform 0;
    }
    region914_to_region958
    {
        type            calculated;
        value           uniform 0;
    }
    region914_to_YSZ
    {
        type            calculated;
        value           uniform 0;
    }
    region914_to_region941
    {
        type            calculated;
        value           uniform 0;
    }
    region914_to_membrane
    {
        type            calculated;
        value           uniform 0;
    }
    region914_to_region942
    {
        type            calculated;
        value           uniform 0;
    }
    region914_to_Ni
    {
        type            calculated;
        value           uniform 0;
    }
}


// ************************************************************************* //
