/*--------------------------------*- C++ -*----------------------------------*\
  =========                 |
  \\      /  F ield         | OpenFOAM: The Open Source CFD Toolbox
   \\    /   O peration     | Website:  https://openfoam.org
    \\  /    A nd           | Version:  6
     \\/     M anipulation  |
\*---------------------------------------------------------------------------*/
FoamFile
{
    version     2.0;
    format      ascii;
    class       polyBoundaryMesh;
    location    "constant/region286/polyMesh";
    object      boundary;
}
// * * * * * * * * * * * * * * * * * * * * * * * * * * * * * * * * * * * * * //

3
(
    symmetry_left
    {
        type            patch;
        nFaces          2;
        startFace       1;
    }
    region286_to_Ni
    {
        type            mappedWall;
        inGroups        1(wall);
        nFaces          2;
        startFace       3;
        sampleMode      nearestPatchFace;
        sampleRegion    Ni;
        samplePatch     Ni_to_region286;
    }
    region286_to_YSZ
    {
        type            mappedWall;
        inGroups        1(wall);
        nFaces          6;
        startFace       5;
        sampleMode      nearestPatchFace;
        sampleRegion    YSZ;
        samplePatch     YSZ_to_region286;
    }
)

// ************************************************************************* //
