/*--------------------------------*- C++ -*----------------------------------*\
  =========                 |
  \\      /  F ield         | OpenFOAM: The Open Source CFD Toolbox
   \\    /   O peration     | Website:  https://openfoam.org
    \\  /    A nd           | Version:  6
     \\/     M anipulation  |
\*---------------------------------------------------------------------------*/
FoamFile
{
    version     2.0;
    format      ascii;
    class       polyBoundaryMesh;
    location    "constant/region175/polyMesh";
    object      boundary;
}
// * * * * * * * * * * * * * * * * * * * * * * * * * * * * * * * * * * * * * //

2
(
    region175_to_YSZ
    {
        type            mappedWall;
        inGroups        1(wall);
        nFaces          4;
        startFace       0;
        sampleMode      nearestPatchFace;
        sampleRegion    YSZ;
        samplePatch     YSZ_to_region175;
    }
    region175_to_region6
    {
        type            mappedWall;
        inGroups        1(wall);
        nFaces          2;
        startFace       4;
        sampleMode      nearestPatchFace;
        sampleRegion    region6;
        samplePatch     region6_to_region175;
    }
)

// ************************************************************************* //
