/*--------------------------------*- C++ -*----------------------------------*\
  =========                 |
  \\      /  F ield         | OpenFOAM: The Open Source CFD Toolbox
   \\    /   O peration     | Website:  https://openfoam.org
    \\  /    A nd           | Version:  6
     \\/     M anipulation  |
\*---------------------------------------------------------------------------*/
FoamFile
{
    version     2.0;
    format      ascii;
    class       polyBoundaryMesh;
    location    "constant/region702/polyMesh";
    object      boundary;
}
// * * * * * * * * * * * * * * * * * * * * * * * * * * * * * * * * * * * * * //

2
(
    region702_to_region395
    {
        type            mappedWall;
        inGroups        1(wall);
        nFaces          3;
        startFace       1;
        sampleMode      nearestPatchFace;
        sampleRegion    region395;
        samplePatch     region395_to_region702;
    }
    region702_to_YSZ
    {
        type            mappedWall;
        inGroups        1(wall);
        nFaces          7;
        startFace       4;
        sampleMode      nearestPatchFace;
        sampleRegion    YSZ;
        samplePatch     YSZ_to_region702;
    }
)

// ************************************************************************* //
