/*--------------------------------*- C++ -*----------------------------------*\
  =========                 |
  \\      /  F ield         | OpenFOAM: The Open Source CFD Toolbox
   \\    /   O peration     | Website:  https://openfoam.org
    \\  /    A nd           | Version:  6
     \\/     M anipulation  |
\*---------------------------------------------------------------------------*/
FoamFile
{
    version     2.0;
    format      ascii;
    class       polyBoundaryMesh;
    location    "constant/region437/polyMesh";
    object      boundary;
}
// * * * * * * * * * * * * * * * * * * * * * * * * * * * * * * * * * * * * * //

2
(
    region437_to_region327
    {
        type            mappedWall;
        inGroups        1(wall);
        nFaces          7;
        startFace       2;
        sampleMode      nearestPatchFace;
        sampleRegion    region327;
        samplePatch     region327_to_region437;
    }
    region437_to_YSZ
    {
        type            mappedWall;
        inGroups        1(wall);
        nFaces          7;
        startFace       9;
        sampleMode      nearestPatchFace;
        sampleRegion    YSZ;
        samplePatch     YSZ_to_region437;
    }
)

// ************************************************************************* //
