/*--------------------------------*- C++ -*----------------------------------*\
  =========                 |
  \\      /  F ield         | OpenFOAM: The Open Source CFD Toolbox
   \\    /   O peration     | Website:  https://openfoam.org
    \\  /    A nd           | Version:  6
     \\/     M anipulation  |
\*---------------------------------------------------------------------------*/
FoamFile
{
    version     2.0;
    format      ascii;
    class       volScalarField;
    location    "0/region21";
    object      cellToRegion;
}
// * * * * * * * * * * * * * * * * * * * * * * * * * * * * * * * * * * * * * //

dimensions      [0 0 0 0 0 0 0];

internalField   uniform 22;

boundaryField
{
    symmetry_back
    {
        type            zeroGradient;
    }
    bottom
    {
        type            zeroGradient;
    }
    region21_to_region67
    {
        type            calculated;
        value           uniform 0;
    }
    region21_to_Ni
    {
        type            calculated;
        value           uniform 0;
    }
    region21_to_region241
    {
        type            calculated;
        value           uniform 0;
    }
    region21_to_region102
    {
        type            calculated;
        value           uniform 0;
    }
    region21_to_region19
    {
        type            calculated;
        value           uniform 0;
    }
    region21_to_region197
    {
        type            calculated;
        value           uniform 0;
    }
    region21_to_region183
    {
        type            calculated;
        value           uniform 0;
    }
    region21_to_region32
    {
        type            calculated;
        value           uniform 0;
    }
    region21_to_region225
    {
        type            calculated;
        value           uniform 0;
    }
    region21_to_region186
    {
        type            calculated;
        value           uniform 0;
    }
    region21_to_region224
    {
        type            calculated;
        value           uniform 0;
    }
    region21_to_region23
    {
        type            calculated;
        value           uniform 0;
    }
    region21_to_region243
    {
        type            calculated;
        value           uniform 0;
    }
    region21_to_region144
    {
        type            calculated;
        value           uniform 0;
    }
    region21_to_region20
    {
        type            calculated;
        value           uniform 0;
    }
    region21_to_region223
    {
        type            calculated;
        value           uniform 0;
    }
    region21_to_region79
    {
        type            calculated;
        value           uniform 0;
    }
    region21_to_region240
    {
        type            calculated;
        value           uniform 0;
    }
    region21_to_region146
    {
        type            calculated;
        value           uniform 0;
    }
    region21_to_region90
    {
        type            calculated;
        value           uniform 0;
    }
    region21_to_region24
    {
        type            calculated;
        value           uniform 0;
    }
    region21_to_region66
    {
        type            calculated;
        value           uniform 0;
    }
    region21_to_region65
    {
        type            calculated;
        value           uniform 0;
    }
    region21_to_YSZ
    {
        type            calculated;
        value           uniform 0;
    }
    region21_to_region185
    {
        type            calculated;
        value           uniform 0;
    }
    region21_to_region221
    {
        type            calculated;
        value           uniform 0;
    }
    region21_to_region145
    {
        type            calculated;
        value           uniform 0;
    }
    region21_to_region22
    {
        type            calculated;
        value           uniform 0;
    }
    region21_to_region130
    {
        type            calculated;
        value           uniform 0;
    }
    region21_to_region68
    {
        type            calculated;
        value           uniform 0;
    }
    region21_to_region31
    {
        type            calculated;
        value           uniform 0;
    }
    region21_to_region105
    {
        type            calculated;
        value           uniform 0;
    }
    region21_to_region198
    {
        type            calculated;
        value           uniform 0;
    }
    region21_to_region131
    {
        type            calculated;
        value           uniform 0;
    }
}


// ************************************************************************* //
