/*--------------------------------*- C++ -*----------------------------------*\
  =========                 |
  \\      /  F ield         | OpenFOAM: The Open Source CFD Toolbox
   \\    /   O peration     | Website:  https://openfoam.org
    \\  /    A nd           | Version:  6
     \\/     M anipulation  |
\*---------------------------------------------------------------------------*/
FoamFile
{
    version     2.0;
    format      ascii;
    class       polyBoundaryMesh;
    location    "constant/region256/polyMesh";
    object      boundary;
}
// * * * * * * * * * * * * * * * * * * * * * * * * * * * * * * * * * * * * * //

3
(
    region256_to_region283
    {
        type            mappedWall;
        inGroups        1(wall);
        nFaces          1;
        startFace       1;
        sampleMode      nearestPatchFace;
        sampleRegion    region283;
        samplePatch     region283_to_region256;
    }
    region256_to_region6
    {
        type            mappedWall;
        inGroups        1(wall);
        nFaces          4;
        startFace       2;
        sampleMode      nearestPatchFace;
        sampleRegion    region6;
        samplePatch     region6_to_region256;
    }
    region256_to_YSZ
    {
        type            mappedWall;
        inGroups        1(wall);
        nFaces          5;
        startFace       6;
        sampleMode      nearestPatchFace;
        sampleRegion    YSZ;
        samplePatch     YSZ_to_region256;
    }
)

// ************************************************************************* //
