/*--------------------------------*- C++ -*----------------------------------*\
  =========                 |
  \\      /  F ield         | OpenFOAM: The Open Source CFD Toolbox
   \\    /   O peration     | Website:  https://openfoam.org
    \\  /    A nd           | Version:  6
     \\/     M anipulation  |
\*---------------------------------------------------------------------------*/
FoamFile
{
    version     2.0;
    format      ascii;
    class       polyBoundaryMesh;
    location    "constant/region184/polyMesh";
    object      boundary;
}
// * * * * * * * * * * * * * * * * * * * * * * * * * * * * * * * * * * * * * //

3
(
    region184_to_region182
    {
        type            mappedWall;
        inGroups        1(wall);
        nFaces          1;
        startFace       0;
        sampleMode      nearestPatchFace;
        sampleRegion    region182;
        samplePatch     region182_to_region184;
    }
    region184_to_Ni
    {
        type            mappedWall;
        inGroups        1(wall);
        nFaces          2;
        startFace       1;
        sampleMode      nearestPatchFace;
        sampleRegion    Ni;
        samplePatch     Ni_to_region184;
    }
    region184_to_region6
    {
        type            mappedWall;
        inGroups        1(wall);
        nFaces          3;
        startFace       3;
        sampleMode      nearestPatchFace;
        sampleRegion    region6;
        samplePatch     region6_to_region184;
    }
)

// ************************************************************************* //
