/*--------------------------------*- C++ -*----------------------------------*\
  =========                 |
  \\      /  F ield         | OpenFOAM: The Open Source CFD Toolbox
   \\    /   O peration     | Website:  https://openfoam.org
    \\  /    A nd           | Version:  6
     \\/     M anipulation  |
\*---------------------------------------------------------------------------*/
FoamFile
{
    version     2.0;
    format      ascii;
    class       polyBoundaryMesh;
    location    "constant/region8/polyMesh";
    object      boundary;
}
// * * * * * * * * * * * * * * * * * * * * * * * * * * * * * * * * * * * * * //

3
(
    bottom
    {
        type            patch;
        nFaces          1;
        startFace       0;
    }
    region8_to_YSZ
    {
        type            mappedWall;
        inGroups        1(wall);
        nFaces          3;
        startFace       1;
        sampleMode      nearestPatchFace;
        sampleRegion    YSZ;
        samplePatch     YSZ_to_region8;
    }
    region8_to_region7
    {
        type            mappedWall;
        inGroups        1(wall);
        nFaces          2;
        startFace       4;
        sampleMode      nearestPatchFace;
        sampleRegion    region7;
        samplePatch     region7_to_region8;
    }
)

// ************************************************************************* //
