/*--------------------------------*- C++ -*----------------------------------*\
  =========                 |
  \\      /  F ield         | OpenFOAM: The Open Source CFD Toolbox
   \\    /   O peration     | Website:  https://openfoam.org
    \\  /    A nd           | Version:  6
     \\/     M anipulation  |
\*---------------------------------------------------------------------------*/
FoamFile
{
    version     2.0;
    format      ascii;
    class       polyBoundaryMesh;
    location    "constant/region196/polyMesh";
    object      boundary;
}
// * * * * * * * * * * * * * * * * * * * * * * * * * * * * * * * * * * * * * //

2
(
    region196_to_YSZ
    {
        type            mappedWall;
        inGroups        1(wall);
        nFaces          6;
        startFace       1;
        sampleMode      nearestPatchFace;
        sampleRegion    YSZ;
        samplePatch     YSZ_to_region196;
    }
    region196_to_region6
    {
        type            mappedWall;
        inGroups        1(wall);
        nFaces          4;
        startFace       7;
        sampleMode      nearestPatchFace;
        sampleRegion    region6;
        samplePatch     region6_to_region196;
    }
)

// ************************************************************************* //
