/*--------------------------------*- C++ -*----------------------------------*\
  =========                 |
  \\      /  F ield         | OpenFOAM: The Open Source CFD Toolbox
   \\    /   O peration     | Website:  https://openfoam.org
    \\  /    A nd           | Version:  6
     \\/     M anipulation  |
\*---------------------------------------------------------------------------*/
FoamFile
{
    version     2.0;
    format      ascii;
    class       volScalarField;
    location    "0/region503";
    object      cellToRegion;
}
// * * * * * * * * * * * * * * * * * * * * * * * * * * * * * * * * * * * * * //

dimensions      [0 0 0 0 0 0 0];

internalField   uniform 505;

boundaryField
{
    symmetry_right
    {
        type            zeroGradient;
    }
    region503_to_region530
    {
        type            calculated;
        value           uniform 0;
    }
    region503_to_region544
    {
        type            calculated;
        value           uniform 0;
    }
    region503_to_membrane
    {
        type            calculated;
        value           uniform 0;
    }
    region503_to_region553
    {
        type            calculated;
        value           uniform 0;
    }
    region503_to_region524
    {
        type            calculated;
        value           uniform 0;
    }
    region503_to_region521
    {
        type            calculated;
        value           uniform 0;
    }
    region503_to_region529
    {
        type            calculated;
        value           uniform 0;
    }
    region503_to_YSZ
    {
        type            calculated;
        value           uniform 0;
    }
    region503_to_region547
    {
        type            calculated;
        value           uniform 0;
    }
    region503_to_region531
    {
        type            calculated;
        value           uniform 0;
    }
    region503_to_region532
    {
        type            calculated;
        value           uniform 0;
    }
    region503_to_region525
    {
        type            calculated;
        value           uniform 0;
    }
    region503_to_Ni
    {
        type            calculated;
        value           uniform 0;
    }
}


// ************************************************************************* //
