/*--------------------------------*- C++ -*----------------------------------*\
  =========                 |
  \\      /  F ield         | OpenFOAM: The Open Source CFD Toolbox
   \\    /   O peration     | Website:  https://openfoam.org
    \\  /    A nd           | Version:  6
     \\/     M anipulation  |
\*---------------------------------------------------------------------------*/
FoamFile
{
    version     2.0;
    format      ascii;
    class       polyBoundaryMesh;
    location    "constant/region14/polyMesh";
    object      boundary;
}
// * * * * * * * * * * * * * * * * * * * * * * * * * * * * * * * * * * * * * //

3
(
    bottom
    {
        type            patch;
        nFaces          2;
        startFace       1;
    }
    region14_to_region6
    {
        type            mappedWall;
        inGroups        1(wall);
        nFaces          5;
        startFace       3;
        sampleMode      nearestPatchFace;
        sampleRegion    region6;
        samplePatch     region6_to_region14;
    }
    region14_to_YSZ
    {
        type            mappedWall;
        inGroups        1(wall);
        nFaces          3;
        startFace       8;
        sampleMode      nearestPatchFace;
        sampleRegion    YSZ;
        samplePatch     YSZ_to_region14;
    }
)

// ************************************************************************* //
