/*--------------------------------*- C++ -*----------------------------------*\
  =========                 |
  \\      /  F ield         | OpenFOAM: The Open Source CFD Toolbox
   \\    /   O peration     | Website:  https://openfoam.org
    \\  /    A nd           | Version:  6
     \\/     M anipulation  |
\*---------------------------------------------------------------------------*/
FoamFile
{
    version     2.0;
    format      ascii;
    class       dictionary;
    object      blockMeshDict;
}
// * * * * * * * * * * * * * * * * * * * * * * * * * * * * * * * * * * * * * //

convertToMeters 1e-6;

vertices
(
    (0       -1055       -2000)    //0
    (1e5     -1055       -2000)    //1
    (1e5     -1055        2000)    //2
    (0       -1055        2000)    //3

//-1 cathode BP+GFC
    (0       -55        -2000)       //4
    (1e5     -55        -2000)       //5
    (1e5     -55         2000)    //6
    (0       -55         2000)    //7

//-2 cathode GDL
    (0       -15        -2000)       //8
    (1e5     -15        -2000)       //9
    (1e5     -15         2000)    //10
    (0       -15         2000)    //11

//-3 cathode CL
    (0       -5        -2000)       //12
    (1e5     -5        -2000)       //13
    (1e5     -5         2000)    //14
    (0       -5         2000)    //15

//0 electrolyte====================================
    (0        5       -2000)       //16
    (1e5      5       -2000)       //17
    (1e5      5        2000)    //18
    (0        5        2000)    //19

//+3 anode CL
    (0        15      -2000)       //20
    (1e5      15      -2000)       //21
    (1e5      15       2000)    //22
    (0        15       2000)    //23

//+2 anode GDL
    (0        515     -2000)       //24
    (1e5      515     -2000)       //25
    (1e5      515      2000)    //26
    (0        515      2000)    //27

//+1 anode BP+GFC
    (0        1515    -2000)       //28
    (1e5      1515    -2000)       //29
    (1e5      1515     2000)    //30
    (0        1515     2000)    //31

);

blocks
(
    //cathode BP+GFC   
    hex (0 1 5 4 3 2 6 7) (100 20 30) simpleGrading (1 1 1)
    //cathode GDL
    hex (4 5 9 8 7 6 10 11) (100 10 30) simpleGrading (1 1 1)
    //cathode CL
    hex (8 9 13 12 11 10 14 15) (100 10 30) simpleGrading (1 1 1)
    //electrolyte
    hex (12 13 17 16 15 14 18 19) (100 10 30) simpleGrading (1 1 1)
    //anode CL
    hex (16 17 21 20 19 18 22 23) (100 10 30) simpleGrading (1 1 1)
    //anode GDL
    hex (20 21 25 24 23 22 26 27) (100 10 30) simpleGrading (1 1 1)
    //anode BP+GFC
    hex (24 25 29 28 27 26 30 31) (100 10 30) simpleGrading (1 1 1)
);

edges
(
);

boundary
(
    inlet_anode
    {
        type patch;
        faces
        (
(	24	28	31	27	)

        );
    }

    outlet_anode
    {
        type patch;
        faces
        (
(	25	26	30	29	)

        );
    }

    inlet_cathode
    {
        type patch;
        faces
        (
(	0	4	7	3	)

        );
    }

    outlet_cathode
    {
        type patch;
        faces
        (
(	1	2	6	5	)

        );
    }
    
    
    inlet_side
    {
        type patch;
        faces
        (
//(	0	4	7	3	)
(	4	8	11	7	)
(	8	12	15	11	)
(	12	16	19	15	)
(	16	20	23	19	)
(	20	24	27	23	)
//(	24	28	31	27	)
//(	28	32	35	31	)
//(	32	36	39	35	)

        );
    }
    outlet_side
    {
        type patch;
        faces
        (
//(	1	2	6	5	)
(	5	6	10	9	)
(	9	10	14	13	)
(	13	14	18	17	)
(	17	18	22	21	)
(	21	22	26	25	)
//(	25	26	30	29	)
//(	29	30	34	33	)
//(	33	34	38	37	)

        );
    }
    symmetry_left
    {
        type patch;
        faces
        (
(	3	7	6	2	)
(	7	11	10	6	)
(	11	15	14	10	)
(	15	19	18	14	)
(	19	23	22	18	)
(	23	27	26	22	)
(	27	31	30	26	)
//(	31	35	34	30	)
//(	35	39	38	34	)

        );
    }
    symmetry_right
    {
        type patch;
        faces
        (
(	0	1	5	4	)
(	4	5	9	8	)
(	8	9	13	12	)
(	12	13	17	16	)
(	16	17	21	20	)
(	20	21	25	24	)
(	24	25	29	28	)
//(	28	29	33	32	)
//(	32	33	37	36	)

        );
    }

    top
    {
        type patch;
        faces
        (
(	28	31	30	29	)


        );
    }

    bottom
    {
        type patch;
        faces
        (
(	0	3	2	1	)


        );
    }

);

mergePatchPairs
(
);

// ************************************************************************* //
