/*--------------------------------*- C++ -*----------------------------------*\
  =========                 |
  \\      /  F ield         | OpenFOAM: The Open Source CFD Toolbox
   \\    /   O peration     | Website:  https://openfoam.org
    \\  /    A nd           | Version:  6
     \\/     M anipulation  |
\*---------------------------------------------------------------------------*/
FoamFile
{
    version     2.0;
    format      ascii;
    class       dictionary;
    object      topoSetDict;
}

// * * * * * * * * * * * * * * * * * * * * * * * * * * * * * * * * * * * * * //

actions
(

// cell Zones
    // anode BP
    {
        name    anodeBPCellSet;
        type    cellSet;
        action  new;
        source  boxToCell;
        sourceInfo
        {
            box (0    515e-6 -2000e-6 )(0.1   1015e-6  -1500e-6);
        }
    }
    {
        name    anodeBPCellSet;
        type    cellSet;
        action  add;
        source  boxToCell;
        sourceInfo
        {
            box (0    515e-6  1500e-6)(0.1   1015e-6   2000e-6);
        }
    }
    {
        name    anodeBPCellSet;
        type    cellSet;
        action  add;
        source  boxToCell;
        sourceInfo
        {
            box (0    1015e-6  -2000e-6)(0.1   1515e-6   2000e-6);
        }
    }
    {
        name    anodeBP;
        type    cellZoneSet;
        action  new;
        source  setToCellZone;
        sourceInfo
        {
            set anodeBPCellSet;
        }
    }

    // anode FC
    {
        name    anodePartCellSet;
        type    cellSet;
        action  new;
        source  boxToCell;
        sourceInfo
        {
            box (0  515e-6 -1500e-6 )(0.1   1015e-6    1500e-6 );
        }
    }
     /*anode GDL*/
    {
        name    anodePartCellSet;
        type    cellSet;
        action  add;
        source  boxToCell;
        sourceInfo
        {
            box (0   15e-6   -2000e-6 )(0.1    515e-6     2000e-6);
        }
    }
     /*anode CL*/
    {
        name    anodePartCellSet;
        type    cellSet;
        action  add;
        source  boxToCell;
        sourceInfo
        {
            box (0   5e-6   -2000e-6 )(0.1    315e-6     2000e-6);
        }
    }

    {
        name anodePart;
        type    cellZoneSet;
        action  new;
        source  setToCellZone;
        sourceInfo
        {
            set  anodePartCellSet;
        }
    }

    // membrane
    {
        name    membraneCellSet;
        type    cellSet;
        action  new;
        source  boxToCell;
        sourceInfo
        {
            box (0   -5e-6   -2000e-6 )(0.1    5e-6     2000e-6);
        }
    }
    {
        name    membrane;
        type    cellZoneSet;
        action  new;
        source  setToCellZone;
        sourceInfo
        {
            set membraneCellSet;
        }
    }

// cathode part

     /*cathode CL*/
    {
        name    cathodePartCellSet;
        type    cellSet;
        action  new;
        source  boxToCell;
        sourceInfo
        {
            box (0   -15e-6   -2000e-6 )(0.1    -5e-6     2000e-6);
        }
    }
     /*cathode GDL*/
    {
        name    cathodePartCellSet;
        type    cellSet;
        action  add;
        source  boxToCell;
        sourceInfo
        {
            box (0   -55e-6   -2000e-6 )(0.1    -15e-6     2000e-6);
        }
    }

     /*cathode FC*/
    {
        name    cathodePartCellSet;
        type    cellSet;
        action  add;
        source  boxToCell;
        sourceInfo
        {
            box (0  -555e-6   -1500e-6 )(0.1   -55e-6    1500e-6 );
        }
    }

    {
        name    cathodePart;
        type    cellZoneSet;
        action  new;
        source  setToCellZone;
        sourceInfo
        {
            set cathodePartCellSet;
        }
    }

    // cathode BP
    {
        name    cathodeBPCellSet;
        type    cellSet;
        action  new;
        source  boxToCell;
        sourceInfo
        {
            box (0    -555e-6 -2000e-6 )(0.1   -55e-6   -1500e-6);
        }
    }
    {
        name    cathodeBPCellSet;
        type    cellSet;
        action  add;
        source  boxToCell;
        sourceInfo
        {
            box (0    -555e-6  1500e-6)(0.1   -55e-6   2000e-6);
        }
    }
    {
        name    cathodeBPCellSet;
        type    cellSet;
        action  add;
        source  boxToCell;
        sourceInfo
        {
            box (0    -1055e-6  -2000e-6)(0.1   -555e-6   2000e-6);
        }
    }
    {
        name    cathodeBP;
        type    cellZoneSet;
        action  new;
        source  setToCellZone;
        sourceInfo
        {
            set cathodeBPCellSet;
        }
    }




);
