/*--------------------------------*- C++ -*----------------------------------*\
  =========                 |
  \\      /  F ield         | OpenFOAM: The Open Source CFD Toolbox
   \\    /   O peration     | Website:  https://openfoam.org
    \\  /    A nd           | Version:  6
     \\/     M anipulation  |
\*---------------------------------------------------------------------------*/
FoamFile
{
    version     2.0;
    format      ascii;
    class       polyBoundaryMesh;
    location    "constant/region504/polyMesh";
    object      boundary;
}
// * * * * * * * * * * * * * * * * * * * * * * * * * * * * * * * * * * * * * //

3
(
    symmetry_left
    {
        type            patch;
        nFaces          4;
        startFace       4;
    }
    region504_to_Ni
    {
        type            mappedWall;
        inGroups        1(wall);
        nFaces          11;
        startFace       8;
        sampleMode      nearestPatchFace;
        sampleRegion    Ni;
        samplePatch     Ni_to_region504;
    }
    region504_to_YSZ
    {
        type            mappedWall;
        inGroups        1(wall);
        nFaces          1;
        startFace       19;
        sampleMode      nearestPatchFace;
        sampleRegion    YSZ;
        samplePatch     YSZ_to_region504;
    }
)

// ************************************************************************* //
