/*--------------------------------*- C++ -*----------------------------------*\
  =========                 |
  \\      /  F ield         | OpenFOAM: The Open Source CFD Toolbox
   \\    /   O peration     | Website:  https://openfoam.org
    \\  /    A nd           | Version:  6
     \\/     M anipulation  |
\*---------------------------------------------------------------------------*/
FoamFile
{
    version     2.0;
    format      ascii;
    class       polyBoundaryMesh;
    location    "constant/region435/polyMesh";
    object      boundary;
}
// * * * * * * * * * * * * * * * * * * * * * * * * * * * * * * * * * * * * * //

2
(
    region435_to_YSZ
    {
        type            mappedWall;
        inGroups        1(wall);
        nFaces          8;
        startFace       6;
        sampleMode      nearestPatchFace;
        sampleRegion    YSZ;
        samplePatch     YSZ_to_region435;
    }
    region435_to_region74
    {
        type            mappedWall;
        inGroups        1(wall);
        nFaces          22;
        startFace       14;
        sampleMode      nearestPatchFace;
        sampleRegion    region74;
        samplePatch     region74_to_region435;
    }
)

// ************************************************************************* //
