/*--------------------------------*- C++ -*----------------------------------*\
  =========                 |
  \\      /  F ield         | OpenFOAM: The Open Source CFD Toolbox
   \\    /   O peration     | Website:  https://openfoam.org
    \\  /    A nd           | Version:  6
     \\/     M anipulation  |
\*---------------------------------------------------------------------------*/
FoamFile
{
    version     2.0;
    format      ascii;
    class       polyBoundaryMesh;
    location    "constant/region627/polyMesh";
    object      boundary;
}
// * * * * * * * * * * * * * * * * * * * * * * * * * * * * * * * * * * * * * //

2
(
    region627_to_pore
    {
        type            mappedWall;
        inGroups        1(wall);
        nFaces          5;
        startFace       0;
        sampleMode      nearestPatchFace;
        sampleRegion    pore;
        samplePatch     pore_to_region627;
    }
    region627_to_region14
    {
        type            mappedWall;
        inGroups        1(wall);
        nFaces          1;
        startFace       5;
        sampleMode      nearestPatchFace;
        sampleRegion    region14;
        samplePatch     region14_to_region627;
    }
)

// ************************************************************************* //
