/*--------------------------------*- C++ -*----------------------------------*\
  =========                 |
  \\      /  F ield         | OpenFOAM: The Open Source CFD Toolbox
   \\    /   O peration     | Website:  https://openfoam.org
    \\  /    A nd           | Version:  6
     \\/     M anipulation  |
\*---------------------------------------------------------------------------*/
FoamFile
{
    version     2.0;
    format      ascii;
    class       polyBoundaryMesh;
    location    "constant/region949/polyMesh";
    object      boundary;
}
// * * * * * * * * * * * * * * * * * * * * * * * * * * * * * * * * * * * * * //

3
(
    region949_to_pore
    {
        type            mappedWall;
        inGroups        1(wall);
        nFaces          1;
        startFace       0;
        sampleMode      nearestPatchFace;
        sampleRegion    pore;
        samplePatch     pore_to_region949;
    }
    region949_to_membrane
    {
        type            mappedWall;
        inGroups        1(wall);
        nFaces          1;
        startFace       1;
        sampleMode      nearestPatchFace;
        sampleRegion    membrane;
        samplePatch     membrane_to_region949;
    }
    region949_to_YSZ
    {
        type            mappedWall;
        inGroups        1(wall);
        nFaces          4;
        startFace       2;
        sampleMode      nearestPatchFace;
        sampleRegion    YSZ;
        samplePatch     YSZ_to_region949;
    }
)

// ************************************************************************* //
