/*--------------------------------*- C++ -*----------------------------------*\
  =========                 |
  \\      /  F ield         | OpenFOAM: The Open Source CFD Toolbox
   \\    /   O peration     | Website:  https://openfoam.org
    \\  /    A nd           | Version:  6
     \\/     M anipulation  |
\*---------------------------------------------------------------------------*/
FoamFile
{
    version     2.0;
    format      ascii;
    class       volScalarField;
    location    "0/solid";
    object      T;
}
// * * * * * * * * * * * * * * * * * * * * * * * * * * * * * * * * * * * * * //

dimensions      [ 0 0 0 0 0 0 0 ];

internalField   uniform 1073.0;

boundaryField
{
    #includeEtc "caseDicts/setConstraintTypes"


    inlet_cathode
    {
        type            fixedValue;
        value           uniform  1073.0;
    }
    outlet_cathode
    {
        type            fixedValue;
        value           uniform  1073.0;
    }
    symmetry_left
    {
        type            fixedValue;
        value           uniform  1073.0;
    }
    symmetry_right
    {
        type            fixedValue;
        value           uniform  1073.0;
    }
    bottom
    {
        type            fixedValue;
        value           uniform  1073.0;
    }
    cathodeBP_to_cathodePart
    {
        type            compressible::turbulentTemperatureCoupledBaffleMixed;
        value           $internalField;
        Tnbr            T;
        kappaMethod     solidThermo;
    }

}


// ************************************************************************* //
