/*--------------------------------*- C++ -*----------------------------------*\
  =========                 |
  \\      /  F ield         | OpenFOAM: The Open Source CFD Toolbox
   \\    /   O peration     | Website:  https://openfoam.org
    \\  /    A nd           | Version:  6
     \\/     M anipulation  |
\*---------------------------------------------------------------------------*/
FoamFile
{
    version     2.0;
    format      ascii;
    class       polyBoundaryMesh;
    location    "constant/region602/polyMesh";
    object      boundary;
}
// * * * * * * * * * * * * * * * * * * * * * * * * * * * * * * * * * * * * * //

4
(
    region602_to_YSZ
    {
        type            mappedWall;
        inGroups        1(wall);
        nFaces          2;
        startFace       0;
        sampleMode      nearestPatchFace;
        sampleRegion    YSZ;
        samplePatch     YSZ_to_region602;
    }
    region602_to_pore
    {
        type            mappedWall;
        inGroups        1(wall);
        nFaces          2;
        startFace       2;
        sampleMode      nearestPatchFace;
        sampleRegion    pore;
        samplePatch     pore_to_region602;
    }
    region602_to_membrane
    {
        type            mappedWall;
        inGroups        1(wall);
        nFaces          1;
        startFace       4;
        sampleMode      nearestPatchFace;
        sampleRegion    membrane;
        samplePatch     membrane_to_region602;
    }
    region602_to_region601
    {
        type            mappedWall;
        inGroups        1(wall);
        nFaces          1;
        startFace       5;
        sampleMode      nearestPatchFace;
        sampleRegion    region601;
        samplePatch     region601_to_region602;
    }
)

// ************************************************************************* //
