/*--------------------------------*- C++ -*----------------------------------*\
  =========                 |
  \\      /  F ield         | OpenFOAM: The Open Source CFD Toolbox
   \\    /   O peration     | Website:  https://openfoam.org
    \\  /    A nd           | Version:  6
     \\/     M anipulation  |
\*---------------------------------------------------------------------------*/
FoamFile
{
    version     2.0;
    format      ascii;
    class       polyBoundaryMesh;
    location    "constant/region47/polyMesh";
    object      boundary;
}
// * * * * * * * * * * * * * * * * * * * * * * * * * * * * * * * * * * * * * //

2
(
    region47_to_YSZ
    {
        type            mappedWall;
        inGroups        1(wall);
        nFaces          3;
        startFace       0;
        sampleMode      nearestPatchFace;
        sampleRegion    YSZ;
        samplePatch     YSZ_to_region47;
    }
    region47_to_region12
    {
        type            mappedWall;
        inGroups        1(wall);
        nFaces          3;
        startFace       3;
        sampleMode      nearestPatchFace;
        sampleRegion    region12;
        samplePatch     region12_to_region47;
    }
)

// ************************************************************************* //
