/*--------------------------------*- C++ -*----------------------------------*\
  =========                 |
  \\      /  F ield         | OpenFOAM: The Open Source CFD Toolbox
   \\    /   O peration     | Website:  https://openfoam.org
    \\  /    A nd           | Version:  6
     \\/     M anipulation  |
\*---------------------------------------------------------------------------*/
FoamFile
{
    version     2.0;
    format      ascii;
    class       polyBoundaryMesh;
    location    "constant/region465/polyMesh";
    object      boundary;
}
// * * * * * * * * * * * * * * * * * * * * * * * * * * * * * * * * * * * * * //

2
(
    region465_to_YSZ
    {
        type            mappedWall;
        inGroups        1(wall);
        nFaces          8;
        startFace       1;
        sampleMode      nearestPatchFace;
        sampleRegion    YSZ;
        samplePatch     YSZ_to_region465;
    }
    region465_to_region220
    {
        type            mappedWall;
        inGroups        1(wall);
        nFaces          2;
        startFace       9;
        sampleMode      nearestPatchFace;
        sampleRegion    region220;
        samplePatch     region220_to_region465;
    }
)

// ************************************************************************* //
