/*--------------------------------*- C++ -*----------------------------------*\
  =========                 |
  \\      /  F ield         | OpenFOAM: The Open Source CFD Toolbox
   \\    /   O peration     | Website:  https://openfoam.org
    \\  /    A nd           | Version:  6
     \\/     M anipulation  |
\*---------------------------------------------------------------------------*/
FoamFile
{
    version     2.0;
    format      ascii;
    class       dictionary;
    location    "constant";
    object      transportProperties;
}
// * * * * * * * * * * * * * * * * * * * * * * * * * * * * * * * * * * * * * //


tau_potential        tau_potential [0 -1 0 0 0 0 0] 1e9;
V_out                V_out [0 -1 0 0 0 0 0] 0.7;

P_IN                       P_IN [0 0 0 0 0 0 0] 101325;   //inlet pressure
T_IN                       T_IN [0 0 0 0 0 0 0] 1073;     //inlet temperature

MOLE_FRACTION_H2_INLET     MOLE_FRACTION_H2_INLET [0 -1 0 0 0 0 0]  0.595;  
MOLE_FRACTION_CO_INLET     MOLE_FRACTION_CO_INLET [0 -1 0 0 0 0 0]  0.13; 

// ************************************************************************* //
