/*--------------------------------*- C++ -*----------------------------------*\
  =========                 |
  \\      /  F ield         | OpenFOAM: The Open Source CFD Toolbox
   \\    /   O peration     | Website:  https://openfoam.org
    \\  /    A nd           | Version:  6
     \\/     M anipulation  |
\*---------------------------------------------------------------------------*/
FoamFile
{
    version     2.0;
    format      ascii;
    class       volScalarField;
    location    "0/gas";
    object      Fai_ion;
}
// * * * * * * * * * * * * * * * * * * * * * * * * * * * * * * * * * * * * * //

dimensions      [ 0 0 0 0 0 0 0 ];

internalField   uniform 0;

boundaryField
{
    #includeEtc "caseDicts/setConstraintTypes"

   

    inlet_cathode
    {
        type            zeroGradient;
    }
    outlet_cathode
    {
        type            zeroGradient;

    }
    inlet_side
    {
        type            zeroGradient;
    }
    outlet_side
    {
        type            zeroGradient;
    }
    symmetry_left
    {
        type            zeroGradient;
    }
    symmetry_right
    {
        type            zeroGradient;
    }
    cathodePart_to_membrane
    {
        type            compressible::turbulentTemperatureCoupledBaffleMixed;
        value           $internalField;
        Tnbr            Fai_ion;
        kappaMethod     lookup;
        kappa           k_eff_ion;  
    }
    cathodePart_to_cathodeBP
    {
        type            zeroGradient;
    }

}


// ************************************************************************* //
