/*--------------------------------*- C++ -*----------------------------------*\
  =========                 |
  \\      /  F ield         | OpenFOAM: The Open Source CFD Toolbox
   \\    /   O peration     | Website:  https://openfoam.org
    \\  /    A nd           | Version:  6
     \\/     M anipulation  |
\*---------------------------------------------------------------------------*/
FoamFile
{
    version     2.0;
    format      ascii;
    class       volScalarField;
    location    "0/anodeBP";
    object      cellToRegion;
}
// * * * * * * * * * * * * * * * * * * * * * * * * * * * * * * * * * * * * * //

dimensions      [0 0 0 0 0 0 0];

internalField   uniform 4;

boundaryField
{
    inlet_anode
    {
        type            zeroGradient;
    }
    outlet_anode
    {
        type            zeroGradient;
    }
    symmetry_left
    {
        type            zeroGradient;
    }
    symmetry_right
    {
        type            zeroGradient;
    }
    top
    {
        type            zeroGradient;
    }
    anodeBP_to_anodePart
    {
        type            calculated;
        value           uniform 0;
    }
}


// ************************************************************************* //
