/*--------------------------------*- C++ -*----------------------------------*\
  =========                 |
  \\      /  F ield         | OpenFOAM: The Open Source CFD Toolbox
   \\    /   O peration     | Website:  https://openfoam.org
    \\  /    A nd           | Version:  6
     \\/     M anipulation  |
\*---------------------------------------------------------------------------*/
FoamFile
{
    version     2.0;
    format      ascii;
    class       polyBoundaryMesh;
    location    "constant/region914/polyMesh";
    object      boundary;
}
// * * * * * * * * * * * * * * * * * * * * * * * * * * * * * * * * * * * * * //

7
(
    region914_to_region957
    {
        type            mappedWall;
        inGroups        1(wall);
        nFaces          2;
        startFace       636;
        sampleMode      nearestPatchFace;
        sampleRegion    region957;
        samplePatch     region957_to_region914;
    }
    region914_to_region958
    {
        type            mappedWall;
        inGroups        1(wall);
        nFaces          4;
        startFace       638;
        sampleMode      nearestPatchFace;
        sampleRegion    region958;
        samplePatch     region958_to_region914;
    }
    region914_to_YSZ
    {
        type            mappedWall;
        inGroups        1(wall);
        nFaces          100;
        startFace       642;
        sampleMode      nearestPatchFace;
        sampleRegion    YSZ;
        samplePatch     YSZ_to_region914;
    }
    region914_to_region941
    {
        type            mappedWall;
        inGroups        1(wall);
        nFaces          3;
        startFace       742;
        sampleMode      nearestPatchFace;
        sampleRegion    region941;
        samplePatch     region941_to_region914;
    }
    region914_to_membrane
    {
        type            mappedWall;
        inGroups        1(wall);
        nFaces          85;
        startFace       745;
        sampleMode      nearestPatchFace;
        sampleRegion    membrane;
        samplePatch     membrane_to_region914;
    }
    region914_to_region942
    {
        type            mappedWall;
        inGroups        1(wall);
        nFaces          3;
        startFace       830;
        sampleMode      nearestPatchFace;
        sampleRegion    region942;
        samplePatch     region942_to_region914;
    }
    region914_to_Ni
    {
        type            mappedWall;
        inGroups        1(wall);
        nFaces          157;
        startFace       833;
        sampleMode      nearestPatchFace;
        sampleRegion    Ni;
        samplePatch     Ni_to_region914;
    }
)

// ************************************************************************* //
