/*--------------------------------*- C++ -*----------------------------------*\
  =========                 |
  \\      /  F ield         | OpenFOAM: The Open Source CFD Toolbox
   \\    /   O peration     | Website:  https://openfoam.org
    \\  /    A nd           | Version:  6
     \\/     M anipulation  |
\*---------------------------------------------------------------------------*/
FoamFile
{
    version     2.0;
    format      ascii;
    class       polyBoundaryMesh;
    location    "constant/YSZ/polyMesh";
    object      boundary;
}
// * * * * * * * * * * * * * * * * * * * * * * * * * * * * * * * * * * * * * //

707
(
    symmetry_front
    {
        type            patch;
        nFaces          1974;
        startFace       348604;
    }
    symmetry_back
    {
        type            patch;
        nFaces          2168;
        startFace       350578;
    }
    symmetry_left
    {
        type            patch;
        nFaces          1633;
        startFace       352746;
    }
    symmetry_right
    {
        type            patch;
        nFaces          1976;
        startFace       354379;
    }
    bottom
    {
        type            patch;
        nFaces          2697;
        startFace       356355;
    }
    YSZ_to_region82
    {
        type            mappedWall;
        inGroups        1(wall);
        nFaces          3;
        startFace       359052;
        sampleMode      nearestPatchFace;
        sampleRegion    region82;
        samplePatch     region82_to_YSZ;
    }
    YSZ_to_region440
    {
        type            mappedWall;
        inGroups        1(wall);
        nFaces          3;
        startFace       359055;
        sampleMode      nearestPatchFace;
        sampleRegion    region440;
        samplePatch     region440_to_YSZ;
    }
    YSZ_to_region204
    {
        type            mappedWall;
        inGroups        1(wall);
        nFaces          12;
        startFace       359058;
        sampleMode      nearestPatchFace;
        sampleRegion    region204;
        samplePatch     region204_to_YSZ;
    }
    YSZ_to_region101
    {
        type            mappedWall;
        inGroups        1(wall);
        nFaces          3;
        startFace       359070;
        sampleMode      nearestPatchFace;
        sampleRegion    region101;
        samplePatch     region101_to_YSZ;
    }
    YSZ_to_region48
    {
        type            mappedWall;
        inGroups        1(wall);
        nFaces          5;
        startFace       359073;
        sampleMode      nearestPatchFace;
        sampleRegion    region48;
        samplePatch     region48_to_YSZ;
    }
    YSZ_to_region689
    {
        type            mappedWall;
        inGroups        1(wall);
        nFaces          3;
        startFace       359078;
        sampleMode      nearestPatchFace;
        sampleRegion    region689;
        samplePatch     region689_to_YSZ;
    }
    YSZ_to_region419
    {
        type            mappedWall;
        inGroups        1(wall);
        nFaces          4;
        startFace       359081;
        sampleMode      nearestPatchFace;
        sampleRegion    region419;
        samplePatch     region419_to_YSZ;
    }
    YSZ_to_region166
    {
        type            mappedWall;
        inGroups        1(wall);
        nFaces          7;
        startFace       359085;
        sampleMode      nearestPatchFace;
        sampleRegion    region166;
        samplePatch     region166_to_YSZ;
    }
    YSZ_to_region405
    {
        type            mappedWall;
        inGroups        1(wall);
        nFaces          5;
        startFace       359092;
        sampleMode      nearestPatchFace;
        sampleRegion    region405;
        samplePatch     region405_to_YSZ;
    }
    YSZ_to_region694
    {
        type            mappedWall;
        inGroups        1(wall);
        nFaces          5;
        startFace       359097;
        sampleMode      nearestPatchFace;
        sampleRegion    region694;
        samplePatch     region694_to_YSZ;
    }
    YSZ_to_region667
    {
        type            mappedWall;
        inGroups        1(wall);
        nFaces          3;
        startFace       359102;
        sampleMode      nearestPatchFace;
        sampleRegion    region667;
        samplePatch     region667_to_YSZ;
    }
    YSZ_to_region228
    {
        type            mappedWall;
        inGroups        1(wall);
        nFaces          6;
        startFace       359105;
        sampleMode      nearestPatchFace;
        sampleRegion    region228;
        samplePatch     region228_to_YSZ;
    }
    YSZ_to_region642
    {
        type            mappedWall;
        inGroups        1(wall);
        nFaces          6;
        startFace       359111;
        sampleMode      nearestPatchFace;
        sampleRegion    region642;
        samplePatch     region642_to_YSZ;
    }
    YSZ_to_region436
    {
        type            mappedWall;
        inGroups        1(wall);
        nFaces          5;
        startFace       359117;
        sampleMode      nearestPatchFace;
        sampleRegion    region436;
        samplePatch     region436_to_YSZ;
    }
    YSZ_to_region602
    {
        type            mappedWall;
        inGroups        1(wall);
        nFaces          5;
        startFace       359122;
        sampleMode      nearestPatchFace;
        sampleRegion    region602;
        samplePatch     region602_to_YSZ;
    }
    YSZ_to_region560
    {
        type            mappedWall;
        inGroups        1(wall);
        nFaces          2;
        startFace       359127;
        sampleMode      nearestPatchFace;
        sampleRegion    region560;
        samplePatch     region560_to_YSZ;
    }
    YSZ_to_region259
    {
        type            mappedWall;
        inGroups        1(wall);
        nFaces          5;
        startFace       359129;
        sampleMode      nearestPatchFace;
        sampleRegion    region259;
        samplePatch     region259_to_YSZ;
    }
    YSZ_to_region249
    {
        type            mappedWall;
        inGroups        1(wall);
        nFaces          8;
        startFace       359134;
        sampleMode      nearestPatchFace;
        sampleRegion    region249;
        samplePatch     region249_to_YSZ;
    }
    YSZ_to_region519
    {
        type            mappedWall;
        inGroups        1(wall);
        nFaces          7;
        startFace       359142;
        sampleMode      nearestPatchFace;
        sampleRegion    region519;
        samplePatch     region519_to_YSZ;
    }
    YSZ_to_region144
    {
        type            mappedWall;
        inGroups        1(wall);
        nFaces          3;
        startFace       359149;
        sampleMode      nearestPatchFace;
        sampleRegion    region144;
        samplePatch     region144_to_YSZ;
    }
    YSZ_to_region352
    {
        type            mappedWall;
        inGroups        1(wall);
        nFaces          6;
        startFace       359152;
        sampleMode      nearestPatchFace;
        sampleRegion    region352;
        samplePatch     region352_to_YSZ;
    }
    YSZ_to_region662
    {
        type            mappedWall;
        inGroups        1(wall);
        nFaces          5;
        startFace       359158;
        sampleMode      nearestPatchFace;
        sampleRegion    region662;
        samplePatch     region662_to_YSZ;
    }
    YSZ_to_region577
    {
        type            mappedWall;
        inGroups        1(wall);
        nFaces          7;
        startFace       359163;
        sampleMode      nearestPatchFace;
        sampleRegion    region577;
        samplePatch     region577_to_YSZ;
    }
    YSZ_to_region117
    {
        type            mappedWall;
        inGroups        1(wall);
        nFaces          503;
        startFace       359170;
        sampleMode      nearestPatchFace;
        sampleRegion    region117;
        samplePatch     region117_to_YSZ;
    }
    YSZ_to_region279
    {
        type            mappedWall;
        inGroups        1(wall);
        nFaces          4;
        startFace       359673;
        sampleMode      nearestPatchFace;
        sampleRegion    region279;
        samplePatch     region279_to_YSZ;
    }
    YSZ_to_region164
    {
        type            mappedWall;
        inGroups        1(wall);
        nFaces          6;
        startFace       359677;
        sampleMode      nearestPatchFace;
        sampleRegion    region164;
        samplePatch     region164_to_YSZ;
    }
    YSZ_to_region296
    {
        type            mappedWall;
        inGroups        1(wall);
        nFaces          3;
        startFace       359683;
        sampleMode      nearestPatchFace;
        sampleRegion    region296;
        samplePatch     region296_to_YSZ;
    }
    YSZ_to_region621
    {
        type            mappedWall;
        inGroups        1(wall);
        nFaces          3;
        startFace       359686;
        sampleMode      nearestPatchFace;
        sampleRegion    region621;
        samplePatch     region621_to_YSZ;
    }
    YSZ_to_region441
    {
        type            mappedWall;
        inGroups        1(wall);
        nFaces          3;
        startFace       359689;
        sampleMode      nearestPatchFace;
        sampleRegion    region441;
        samplePatch     region441_to_YSZ;
    }
    YSZ_to_region596
    {
        type            mappedWall;
        inGroups        1(wall);
        nFaces          4;
        startFace       359692;
        sampleMode      nearestPatchFace;
        sampleRegion    region596;
        samplePatch     region596_to_YSZ;
    }
    YSZ_to_region206
    {
        type            mappedWall;
        inGroups        1(wall);
        nFaces          12;
        startFace       359696;
        sampleMode      nearestPatchFace;
        sampleRegion    region206;
        samplePatch     region206_to_YSZ;
    }
    YSZ_to_region49
    {
        type            mappedWall;
        inGroups        1(wall);
        nFaces          5;
        startFace       359708;
        sampleMode      nearestPatchFace;
        sampleRegion    region49;
        samplePatch     region49_to_YSZ;
    }
    YSZ_to_region600
    {
        type            mappedWall;
        inGroups        1(wall);
        nFaces          4;
        startFace       359713;
        sampleMode      nearestPatchFace;
        sampleRegion    region600;
        samplePatch     region600_to_YSZ;
    }
    YSZ_to_region313
    {
        type            mappedWall;
        inGroups        1(wall);
        nFaces          288;
        startFace       359717;
        sampleMode      nearestPatchFace;
        sampleRegion    region313;
        samplePatch     region313_to_YSZ;
    }
    YSZ_to_region275
    {
        type            mappedWall;
        inGroups        1(wall);
        nFaces          4;
        startFace       360005;
        sampleMode      nearestPatchFace;
        sampleRegion    region275;
        samplePatch     region275_to_YSZ;
    }
    YSZ_to_region196
    {
        type            mappedWall;
        inGroups        1(wall);
        nFaces          6;
        startFace       360009;
        sampleMode      nearestPatchFace;
        sampleRegion    region196;
        samplePatch     region196_to_YSZ;
    }
    YSZ_to_region306
    {
        type            mappedWall;
        inGroups        1(wall);
        nFaces          3;
        startFace       360015;
        sampleMode      nearestPatchFace;
        sampleRegion    region306;
        samplePatch     region306_to_YSZ;
    }
    YSZ_to_region57
    {
        type            mappedWall;
        inGroups        1(wall);
        nFaces          6;
        startFace       360018;
        sampleMode      nearestPatchFace;
        sampleRegion    region57;
        samplePatch     region57_to_YSZ;
    }
    YSZ_to_region418
    {
        type            mappedWall;
        inGroups        1(wall);
        nFaces          3;
        startFace       360024;
        sampleMode      nearestPatchFace;
        sampleRegion    region418;
        samplePatch     region418_to_YSZ;
    }
    YSZ_to_region51
    {
        type            mappedWall;
        inGroups        1(wall);
        nFaces          3;
        startFace       360027;
        sampleMode      nearestPatchFace;
        sampleRegion    region51;
        samplePatch     region51_to_YSZ;
    }
    YSZ_to_region239
    {
        type            mappedWall;
        inGroups        1(wall);
        nFaces          3;
        startFace       360030;
        sampleMode      nearestPatchFace;
        sampleRegion    region239;
        samplePatch     region239_to_YSZ;
    }
    YSZ_to_region356
    {
        type            mappedWall;
        inGroups        1(wall);
        nFaces          5;
        startFace       360033;
        sampleMode      nearestPatchFace;
        sampleRegion    region356;
        samplePatch     region356_to_YSZ;
    }
    YSZ_to_region707
    {
        type            mappedWall;
        inGroups        1(wall);
        nFaces          4;
        startFace       360038;
        sampleMode      nearestPatchFace;
        sampleRegion    region707;
        samplePatch     region707_to_YSZ;
    }
    YSZ_to_region714
    {
        type            mappedWall;
        inGroups        1(wall);
        nFaces          7;
        startFace       360042;
        sampleMode      nearestPatchFace;
        sampleRegion    region714;
        samplePatch     region714_to_YSZ;
    }
    YSZ_to_region472
    {
        type            mappedWall;
        inGroups        1(wall);
        nFaces          5;
        startFace       360049;
        sampleMode      nearestPatchFace;
        sampleRegion    region472;
        samplePatch     region472_to_YSZ;
    }
    YSZ_to_region142
    {
        type            mappedWall;
        inGroups        1(wall);
        nFaces          4;
        startFace       360054;
        sampleMode      nearestPatchFace;
        sampleRegion    region142;
        samplePatch     region142_to_YSZ;
    }
    YSZ_to_region305
    {
        type            mappedWall;
        inGroups        1(wall);
        nFaces          2;
        startFace       360058;
        sampleMode      nearestPatchFace;
        sampleRegion    region305;
        samplePatch     region305_to_YSZ;
    }
    YSZ_to_region241
    {
        type            mappedWall;
        inGroups        1(wall);
        nFaces          5;
        startFace       360060;
        sampleMode      nearestPatchFace;
        sampleRegion    region241;
        samplePatch     region241_to_YSZ;
    }
    YSZ_to_region425
    {
        type            mappedWall;
        inGroups        1(wall);
        nFaces          8;
        startFace       360065;
        sampleMode      nearestPatchFace;
        sampleRegion    region425;
        samplePatch     region425_to_YSZ;
    }
    YSZ_to_region439
    {
        type            mappedWall;
        inGroups        1(wall);
        nFaces          4;
        startFace       360073;
        sampleMode      nearestPatchFace;
        sampleRegion    region439;
        samplePatch     region439_to_YSZ;
    }
    YSZ_to_region139
    {
        type            mappedWall;
        inGroups        1(wall);
        nFaces          3;
        startFace       360077;
        sampleMode      nearestPatchFace;
        sampleRegion    region139;
        samplePatch     region139_to_YSZ;
    }
    YSZ_to_region657
    {
        type            mappedWall;
        inGroups        1(wall);
        nFaces          3;
        startFace       360080;
        sampleMode      nearestPatchFace;
        sampleRegion    region657;
        samplePatch     region657_to_YSZ;
    }
    YSZ_to_region397
    {
        type            mappedWall;
        inGroups        1(wall);
        nFaces          6;
        startFace       360083;
        sampleMode      nearestPatchFace;
        sampleRegion    region397;
        samplePatch     region397_to_YSZ;
    }
    YSZ_to_region92
    {
        type            mappedWall;
        inGroups        1(wall);
        nFaces          7;
        startFace       360089;
        sampleMode      nearestPatchFace;
        sampleRegion    region92;
        samplePatch     region92_to_YSZ;
    }
    YSZ_to_region554
    {
        type            mappedWall;
        inGroups        1(wall);
        nFaces          3;
        startFace       360096;
        sampleMode      nearestPatchFace;
        sampleRegion    region554;
        samplePatch     region554_to_YSZ;
    }
    YSZ_to_region369
    {
        type            mappedWall;
        inGroups        1(wall);
        nFaces          33;
        startFace       360099;
        sampleMode      nearestPatchFace;
        sampleRegion    region369;
        samplePatch     region369_to_YSZ;
    }
    YSZ_to_region669
    {
        type            mappedWall;
        inGroups        1(wall);
        nFaces          3;
        startFace       360132;
        sampleMode      nearestPatchFace;
        sampleRegion    region669;
        samplePatch     region669_to_YSZ;
    }
    YSZ_to_region478
    {
        type            mappedWall;
        inGroups        1(wall);
        nFaces          3;
        startFace       360135;
        sampleMode      nearestPatchFace;
        sampleRegion    region478;
        samplePatch     region478_to_YSZ;
    }
    YSZ_to_region243
    {
        type            mappedWall;
        inGroups        1(wall);
        nFaces          5;
        startFace       360138;
        sampleMode      nearestPatchFace;
        sampleRegion    region243;
        samplePatch     region243_to_YSZ;
    }
    YSZ_to_region581
    {
        type            mappedWall;
        inGroups        1(wall);
        nFaces          6;
        startFace       360143;
        sampleMode      nearestPatchFace;
        sampleRegion    region581;
        samplePatch     region581_to_YSZ;
    }
    YSZ_to_region320
    {
        type            mappedWall;
        inGroups        1(wall);
        nFaces          4;
        startFace       360149;
        sampleMode      nearestPatchFace;
        sampleRegion    region320;
        samplePatch     region320_to_YSZ;
    }
    YSZ_to_region688
    {
        type            mappedWall;
        inGroups        1(wall);
        nFaces          2;
        startFace       360153;
        sampleMode      nearestPatchFace;
        sampleRegion    region688;
        samplePatch     region688_to_YSZ;
    }
    YSZ_to_region354
    {
        type            mappedWall;
        inGroups        1(wall);
        nFaces          6;
        startFace       360155;
        sampleMode      nearestPatchFace;
        sampleRegion    region354;
        samplePatch     region354_to_YSZ;
    }
    YSZ_to_region590
    {
        type            mappedWall;
        inGroups        1(wall);
        nFaces          2;
        startFace       360161;
        sampleMode      nearestPatchFace;
        sampleRegion    region590;
        samplePatch     region590_to_YSZ;
    }
    YSZ_to_region146
    {
        type            mappedWall;
        inGroups        1(wall);
        nFaces          8;
        startFace       360163;
        sampleMode      nearestPatchFace;
        sampleRegion    region146;
        samplePatch     region146_to_YSZ;
    }
    YSZ_to_region349
    {
        type            mappedWall;
        inGroups        1(wall);
        nFaces          575;
        startFace       360171;
        sampleMode      nearestPatchFace;
        sampleRegion    region349;
        samplePatch     region349_to_YSZ;
    }
    YSZ_to_region650
    {
        type            mappedWall;
        inGroups        1(wall);
        nFaces          4;
        startFace       360746;
        sampleMode      nearestPatchFace;
        sampleRegion    region650;
        samplePatch     region650_to_YSZ;
    }
    YSZ_to_region430
    {
        type            mappedWall;
        inGroups        1(wall);
        nFaces          4;
        startFace       360750;
        sampleMode      nearestPatchFace;
        sampleRegion    region430;
        samplePatch     region430_to_YSZ;
    }
    YSZ_to_region318
    {
        type            mappedWall;
        inGroups        1(wall);
        nFaces          2;
        startFace       360754;
        sampleMode      nearestPatchFace;
        sampleRegion    region318;
        samplePatch     region318_to_YSZ;
    }
    YSZ_to_region459
    {
        type            mappedWall;
        inGroups        1(wall);
        nFaces          3;
        startFace       360756;
        sampleMode      nearestPatchFace;
        sampleRegion    region459;
        samplePatch     region459_to_YSZ;
    }
    YSZ_to_region321
    {
        type            mappedWall;
        inGroups        1(wall);
        nFaces          3;
        startFace       360759;
        sampleMode      nearestPatchFace;
        sampleRegion    region321;
        samplePatch     region321_to_YSZ;
    }
    YSZ_to_region663
    {
        type            mappedWall;
        inGroups        1(wall);
        nFaces          3;
        startFace       360762;
        sampleMode      nearestPatchFace;
        sampleRegion    region663;
        samplePatch     region663_to_YSZ;
    }
    YSZ_to_region379
    {
        type            mappedWall;
        inGroups        1(wall);
        nFaces          15;
        startFace       360765;
        sampleMode      nearestPatchFace;
        sampleRegion    region379;
        samplePatch     region379_to_YSZ;
    }
    YSZ_to_region701
    {
        type            mappedWall;
        inGroups        1(wall);
        nFaces          31;
        startFace       360780;
        sampleMode      nearestPatchFace;
        sampleRegion    region701;
        samplePatch     region701_to_YSZ;
    }
    YSZ_to_region162
    {
        type            mappedWall;
        inGroups        1(wall);
        nFaces          8;
        startFace       360811;
        sampleMode      nearestPatchFace;
        sampleRegion    region162;
        samplePatch     region162_to_YSZ;
    }
    YSZ_to_region629
    {
        type            mappedWall;
        inGroups        1(wall);
        nFaces          3;
        startFace       360819;
        sampleMode      nearestPatchFace;
        sampleRegion    region629;
        samplePatch     region629_to_YSZ;
    }
    YSZ_to_region575
    {
        type            mappedWall;
        inGroups        1(wall);
        nFaces          60;
        startFace       360822;
        sampleMode      nearestPatchFace;
        sampleRegion    region575;
        samplePatch     region575_to_YSZ;
    }
    YSZ_to_region237
    {
        type            mappedWall;
        inGroups        1(wall);
        nFaces          4;
        startFace       360882;
        sampleMode      nearestPatchFace;
        sampleRegion    region237;
        samplePatch     region237_to_YSZ;
    }
    YSZ_to_region211
    {
        type            mappedWall;
        inGroups        1(wall);
        nFaces          5;
        startFace       360886;
        sampleMode      nearestPatchFace;
        sampleRegion    region211;
        samplePatch     region211_to_YSZ;
    }
    YSZ_to_region233
    {
        type            mappedWall;
        inGroups        1(wall);
        nFaces          6;
        startFace       360891;
        sampleMode      nearestPatchFace;
        sampleRegion    region233;
        samplePatch     region233_to_YSZ;
    }
    YSZ_to_region636
    {
        type            mappedWall;
        inGroups        1(wall);
        nFaces          3;
        startFace       360897;
        sampleMode      nearestPatchFace;
        sampleRegion    region636;
        samplePatch     region636_to_YSZ;
    }
    YSZ_to_region680
    {
        type            mappedWall;
        inGroups        1(wall);
        nFaces          5;
        startFace       360900;
        sampleMode      nearestPatchFace;
        sampleRegion    region680;
        samplePatch     region680_to_YSZ;
    }
    YSZ_to_region681
    {
        type            mappedWall;
        inGroups        1(wall);
        nFaces          6;
        startFace       360905;
        sampleMode      nearestPatchFace;
        sampleRegion    region681;
        samplePatch     region681_to_YSZ;
    }
    YSZ_to_region371
    {
        type            mappedWall;
        inGroups        1(wall);
        nFaces          3;
        startFace       360911;
        sampleMode      nearestPatchFace;
        sampleRegion    region371;
        samplePatch     region371_to_YSZ;
    }
    YSZ_to_region705
    {
        type            mappedWall;
        inGroups        1(wall);
        nFaces          57;
        startFace       360914;
        sampleMode      nearestPatchFace;
        sampleRegion    region705;
        samplePatch     region705_to_YSZ;
    }
    YSZ_to_region345
    {
        type            mappedWall;
        inGroups        1(wall);
        nFaces          3;
        startFace       360971;
        sampleMode      nearestPatchFace;
        sampleRegion    region345;
        samplePatch     region345_to_YSZ;
    }
    YSZ_to_region226
    {
        type            mappedWall;
        inGroups        1(wall);
        nFaces          5;
        startFace       360974;
        sampleMode      nearestPatchFace;
        sampleRegion    region226;
        samplePatch     region226_to_YSZ;
    }
    YSZ_to_region255
    {
        type            mappedWall;
        inGroups        1(wall);
        nFaces          5;
        startFace       360979;
        sampleMode      nearestPatchFace;
        sampleRegion    region255;
        samplePatch     region255_to_YSZ;
    }
    YSZ_to_region626
    {
        type            mappedWall;
        inGroups        1(wall);
        nFaces          2;
        startFace       360984;
        sampleMode      nearestPatchFace;
        sampleRegion    region626;
        samplePatch     region626_to_YSZ;
    }
    YSZ_to_region685
    {
        type            mappedWall;
        inGroups        1(wall);
        nFaces          3;
        startFace       360986;
        sampleMode      nearestPatchFace;
        sampleRegion    region685;
        samplePatch     region685_to_YSZ;
    }
    YSZ_to_region529
    {
        type            mappedWall;
        inGroups        1(wall);
        nFaces          3;
        startFace       360989;
        sampleMode      nearestPatchFace;
        sampleRegion    region529;
        samplePatch     region529_to_YSZ;
    }
    YSZ_to_region537
    {
        type            mappedWall;
        inGroups        1(wall);
        nFaces          4;
        startFace       360992;
        sampleMode      nearestPatchFace;
        sampleRegion    region537;
        samplePatch     region537_to_YSZ;
    }
    YSZ_to_region47
    {
        type            mappedWall;
        inGroups        1(wall);
        nFaces          3;
        startFace       360996;
        sampleMode      nearestPatchFace;
        sampleRegion    region47;
        samplePatch     region47_to_YSZ;
    }
    YSZ_to_region643
    {
        type            mappedWall;
        inGroups        1(wall);
        nFaces          3;
        startFace       360999;
        sampleMode      nearestPatchFace;
        sampleRegion    region643;
        samplePatch     region643_to_YSZ;
    }
    YSZ_to_region628
    {
        type            mappedWall;
        inGroups        1(wall);
        nFaces          1;
        startFace       361002;
        sampleMode      nearestPatchFace;
        sampleRegion    region628;
        samplePatch     region628_to_YSZ;
    }
    YSZ_to_region136
    {
        type            mappedWall;
        inGroups        1(wall);
        nFaces          3;
        startFace       361003;
        sampleMode      nearestPatchFace;
        sampleRegion    region136;
        samplePatch     region136_to_YSZ;
    }
    YSZ_to_region578
    {
        type            mappedWall;
        inGroups        1(wall);
        nFaces          9;
        startFace       361006;
        sampleMode      nearestPatchFace;
        sampleRegion    region578;
        samplePatch     region578_to_YSZ;
    }
    YSZ_to_region462
    {
        type            mappedWall;
        inGroups        1(wall);
        nFaces          13;
        startFace       361015;
        sampleMode      nearestPatchFace;
        sampleRegion    region462;
        samplePatch     region462_to_YSZ;
    }
    YSZ_to_region470
    {
        type            mappedWall;
        inGroups        1(wall);
        nFaces          5;
        startFace       361028;
        sampleMode      nearestPatchFace;
        sampleRegion    region470;
        samplePatch     region470_to_YSZ;
    }
    YSZ_to_region580
    {
        type            mappedWall;
        inGroups        1(wall);
        nFaces          4;
        startFace       361033;
        sampleMode      nearestPatchFace;
        sampleRegion    region580;
        samplePatch     region580_to_YSZ;
    }
    YSZ_to_region12
    {
        type            mappedWall;
        inGroups        1(wall);
        nFaces          353;
        startFace       361037;
        sampleMode      nearestPatchFace;
        sampleRegion    region12;
        samplePatch     region12_to_YSZ;
    }
    YSZ_to_region59
    {
        type            mappedWall;
        inGroups        1(wall);
        nFaces          3;
        startFace       361390;
        sampleMode      nearestPatchFace;
        sampleRegion    region59;
        samplePatch     region59_to_YSZ;
    }
    YSZ_to_region622
    {
        type            mappedWall;
        inGroups        1(wall);
        nFaces          3;
        startFace       361393;
        sampleMode      nearestPatchFace;