/*--------------------------------*- C++ -*----------------------------------*\
  =========                 |
  \\      /  F ield         | OpenFOAM: The Open Source CFD Toolbox
   \\    /   O peration     | Website:  https://openfoam.org
    \\  /    A nd           | Version:  6
     \\/     M anipulation  |
\*---------------------------------------------------------------------------*/
FoamFile
{
    version     2.0;
    format      ascii;
    class       volScalarField;
    location    "0/anodePart";
    object      cellToRegion;
}
// * * * * * * * * * * * * * * * * * * * * * * * * * * * * * * * * * * * * * //

dimensions      [0 0 0 0 0 0 0];

internalField   uniform 3;

boundaryField
{
    inlet_anode
    {
        type            zeroGradient;
    }
    outlet_anode
    {
        type            zeroGradient;
    }
    inlet_side
    {
        type            zeroGradient;
    }
    outlet_side
    {
        type            zeroGradient;
    }
    symmetry_left
    {
        type            zeroGradient;
    }
    symmetry_right
    {
        type            zeroGradient;
    }
    anodePart_to_anodeBP
    {
        type            calculated;
        value           uniform 0;
    }
    anodePart_to_membrane
    {
        type            calculated;
        value           uniform 0;
    }
}


// ************************************************************************* //
