/*--------------------------------*- C++ -*----------------------------------*\
  =========                 |
  \\      /  F ield         | OpenFOAM: The Open Source CFD Toolbox
   \\    /   O peration     | Website:  https://openfoam.org
    \\  /    A nd           | Version:  6
     \\/     M anipulation  |
\*---------------------------------------------------------------------------*/
FoamFile
{
    version     2.0;
    format      ascii;
    class       volScalarField;
    location    "0/gas";
    object      p_rgh;
}
// * * * * * * * * * * * * * * * * * * * * * * * * * * * * * * * * * * * * * //

dimensions      [ 0 0 0 0 0 0 0 ];

internalField   uniform    101325;

boundaryField
{
    #includeEtc "caseDicts/setConstraintTypes"


    inlet_anode
    {

        type            fixedFluxPressure;
        value           $internalField;

    }
    outlet_anode
    {


        type            fixedValue;
        value           $internalField;

    }
    inlet_side
    {
        type            fixedFluxPressure;
        value           $internalField;
    }
    outlet_side
    {
        type            fixedFluxPressure;
        value           $internalField;
    }
    symmetry_left
    {
        type            fixedFluxPressure;
        value           $internalField;
    }
    symmetry_right
    {
        type            fixedFluxPressure;
        value           $internalField;
    }
    anodePart_to_membrane
    {
        type            fixedFluxPressure;
        value           $internalField;
    }
    anodePart_to_anodeBP
    {
        type            fixedFluxPressure;
        value           $internalField;
    }
}


// ************************************************************************* //
