/*--------------------------------*- C++ -*----------------------------------*\
  =========                 |
  \\      /  F ield         | OpenFOAM: The Open Source CFD Toolbox
   \\    /   O peration     | Website:  https://openfoam.org
    \\  /    A nd           | Version:  6
     \\/     M anipulation  |
\*---------------------------------------------------------------------------*/
FoamFile
{
    version     2.0;
    format      ascii;
    class       volVectorField;
    location    "0/gas";
    object      U;
}
// * * * * * * * * * * * * * * * * * * * * * * * * * * * * * * * * * * * * * //

dimensions      [ 0 1 -1 0 0 0 0 ];

internalField   uniform (10 0 0);

boundaryField
{
    #includeEtc "caseDicts/setConstraintTypes"

    inlet_cathode
    {
        type            fixedValue;
        value           uniform (10 0 0);
    }
    outlet_cathode
    {
        type            pressureInletOutletVelocity;
        value           $internalField;
    }
    inlet_side
    {
        type            noSlip;
    }
    outlet_side
    {
        type            noSlip;
    }
    symmetry_left
    {
        type            noSlip;
    }
    symmetry_right
    {
        type            noSlip;
    }
    cathodePart_to_membrane
    {
        type            noSlip;
    }
    cathodePart_to_cathodeBP
    {
        type            noSlip;
    }
}


// ************************************************************************* //
