/*--------------------------------*- C++ -*----------------------------------*\
  =========                 |
  \\      /  F ield         | OpenFOAM: The Open Source CFD Toolbox
   \\    /   O peration     | Website:  https://openfoam.org
    \\  /    A nd           | Version:  6
     \\/     M anipulation  |
\*---------------------------------------------------------------------------*/
FoamFile
{
    version     2.0;
    format      ascii;
    class       polyBoundaryMesh;
    location    "constant/region79/polyMesh";
    object      boundary;
}
// * * * * * * * * * * * * * * * * * * * * * * * * * * * * * * * * * * * * * //

2
(
    region79_to_region21
    {
        type            mappedWall;
        inGroups        1(wall);
        nFaces          2;
        startFace       2;
        sampleMode      nearestPatchFace;
        sampleRegion    region21;
        samplePatch     region21_to_region79;
    }
    region79_to_YSZ
    {
        type            mappedWall;
        inGroups        1(wall);
        nFaces          12;
        startFace       4;
        sampleMode      nearestPatchFace;
        sampleRegion    YSZ;
        samplePatch     YSZ_to_region79;
    }
)

// ************************************************************************* //
