/*--------------------------------*- C++ -*----------------------------------*\
  =========                 |
  \\      /  F ield         | OpenFOAM: The Open Source CFD Toolbox
   \\    /   O peration     | Website:  https://openfoam.org
    \\  /    A nd           | Version:  6
     \\/     M anipulation  |
\*---------------------------------------------------------------------------*/
FoamFile
{
    version     2.0;
    format      ascii;
    class       polyBoundaryMesh;
    location    "constant/anodePart/polyMesh";
    object      boundary;
}
// * * * * * * * * * * * * * * * * * * * * * * * * * * * * * * * * * * * * * //

8
(
    inlet_anode
    {
        type            patch;
        nFaces          110;
        startFace       206790;
    }
    outlet_anode
    {
        type            patch;
        nFaces          110;
        startFace       206900;
    }
    inlet_side
    {
        type            patch;
        nFaces          600;
        startFace       207010;
    }
    outlet_side
    {
        type            patch;
        nFaces          600;
        startFace       207610;
    }
    symmetry_left
    {
        type            patch;
        nFaces          2000;
        startFace       208210;
    }
    symmetry_right
    {
        type            patch;
        nFaces          2000;
        startFace       210210;
    }
    anodePart_to_anodeBP
    {
        type            mappedWall;
        inGroups        1(wall);
        nFaces          4000;
        startFace       212210;
        sampleMode      nearestPatchFace;
        sampleRegion    anodeBP;
        samplePatch     anodeBP_to_anodePart;
    }
    anodePart_to_membrane
    {
        type            mappedWall;
        inGroups        1(wall);
        nFaces          3000;
        startFace       216210;
        sampleMode      nearestPatchFace;
        sampleRegion    membrane;
        samplePatch     membrane_to_anodePart;
    }
)

// ************************************************************************* //
