/*--------------------------------*- C++ -*----------------------------------*\
  =========                 |
  \\      /  F ield         | OpenFOAM: The Open Source CFD Toolbox
   \\    /   O peration     | Website:  https://openfoam.org
    \\  /    A nd           | Version:  6
     \\/     M anipulation  |
\*---------------------------------------------------------------------------*/
FoamFile
{
    version     2.0;
    format      ascii;
    class       polyBoundaryMesh;
    location    "constant/region665/polyMesh";
    object      boundary;
}
// * * * * * * * * * * * * * * * * * * * * * * * * * * * * * * * * * * * * * //

3
(
    region665_to_pore
    {
        type            mappedWall;
        inGroups        1(wall);
        nFaces          3;
        startFace       1;
        sampleMode      nearestPatchFace;
        sampleRegion    pore;
        samplePatch     pore_to_region665;
    }
    region665_to_membrane
    {
        type            mappedWall;
        inGroups        1(wall);
        nFaces          2;
        startFace       4;
        sampleMode      nearestPatchFace;
        sampleRegion    membrane;
        samplePatch     membrane_to_region665;
    }
    region665_to_region14
    {
        type            mappedWall;
        inGroups        1(wall);
        nFaces          5;
        startFace       6;
        sampleMode      nearestPatchFace;
        sampleRegion    region14;
        samplePatch     region14_to_region665;
    }
)

// ************************************************************************* //
