/*--------------------------------*- C++ -*----------------------------------*\
  =========                 |
  \\      /  F ield         | OpenFOAM: The Open Source CFD Toolbox
   \\    /   O peration     | Website:  https://openfoam.org
    \\  /    A nd           | Version:  6
     \\/     M anipulation  |
\*---------------------------------------------------------------------------*/
FoamFile
{
    version     2.0;
    format      ascii;
    class       dictionary;
    location    "constant";
    object      transportProperties;
}
// * * * * * * * * * * * * * * * * * * * * * * * * * * * * * * * * * * * * * //

P_IN                       P_IN [0 0 0 0 0 0 0] 101325;   //inlet pressure
T_IN                       T_IN [0 0 0 0 0 0 0] 1073;     //inlet temperature

// mole fractio for inlet species, different from Niu's code, where molar concentration was used
MOLE_FRACTION_H2_INLET     MOLE_FRACTION_H2_INLET [0 -1 0 0 0 0 0]  0.97;  
MOLE_FRACTION_CO_INLET     MOLE_FRACTION_CO_INLET [0 -1 0 0 0 0 0]  0.0;
MOLE_FRACTION_CH4_INLET    MOLE_FRACTION_CH4_INLET [0 -1 0 0 0 0 0] 0.0; 

MOLE_FRACTION_O2_INLET     MOLE_FRACTION_O2_INLET [0 -1 0 0 0 0 0]   0.21; 
MOLE_FRACTION_H2O_INLET    MOLE_FRACTION_H2O_INLET [0 -1 0 0 0 0 0]  0.03;  //anode side 

A_ACT                A_ACT [0 -1 0 0 0 0 0]   0.16e-10;              // active reaction area such as 20 * 20 um2 = 400e-12
FC_CROSS_SECTION     FC_CROSS_SECTION [0 -1 0 0 0 0 0]  4e-10;  //cross section of flow channel, such as 20 * 20 um2 = 400e-12

tau_potential        tau_potential [0 -1 0 0 0 0 0] 1e9;

I_REF                I_REF [0 -1 0 0 0 0 0]   2000.0;   //reference current density
U_F                  U_F   [0 -1 0 0 0 0 0]   0.7;     //fuel utilization
lamda_AIR            lamda_AIR   [0 -1 0 0 0 0 0]   9; //air ratio


K_p_GDL              K_p_GDL [0 2 0 0 0 0 0] 2e-12;   //intrinsic permeability GDL
K_p_CL               K_p_CL [0 2 0 0 0 0 0] 1e-13;   //intrinsic permeability CL


rho_GDL            rho_GDL  [0 2 0 0 0 0 0]  3310;  //rho
rho_CL             rho_CL   [0 2 0 0 0 0 0]  3310;  

cp_GDL             cp_GDL  [0 2 0 0 0 0 0]  450;   //capacity
cp_CL              cp_CL   [0 2 0 0 0 0 0]  450; 

ks_GDL             ks_GDL  [0 2 0 0 0 0 0]  11;    //thermal conductivity
ks_CL              ks_CL   [0 2 0 0 0 0 0]  11;  


V_out                V_out [0 -1 0 0 0 0 0] 0.12;



// ************************************************************************* //
