/*--------------------------------*- C++ -*----------------------------------*\
  =========                 |
  \\      /  F ield         | OpenFOAM: The Open Source CFD Toolbox
   \\    /   O peration     | Website:  https://openfoam.org
    \\  /    A nd           | Version:  6
     \\/     M anipulation  |
\*---------------------------------------------------------------------------*/
FoamFile
{
    version     2.0;
    format      ascii;
    class       polyBoundaryMesh;
    location    "constant/region507/polyMesh";
    object      boundary;
}
// * * * * * * * * * * * * * * * * * * * * * * * * * * * * * * * * * * * * * //

8
(
    symmetry_front
    {
        type            patch;
        nFaces          60;
        startFace       1699;
    }
    region507_to_YSZ
    {
        type            mappedWall;
        inGroups        1(wall);
        nFaces          258;
        startFace       1759;
        sampleMode      nearestPatchFace;
        sampleRegion    YSZ;
        samplePatch     YSZ_to_region507;
    }
    region507_to_membrane
    {
        type            mappedWall;
        inGroups        1(wall);
        nFaces          94;
        startFace       2017;
        sampleMode      nearestPatchFace;
        sampleRegion    membrane;
        samplePatch     membrane_to_region507;
    }
    region507_to_region518
    {
        type            mappedWall;
        inGroups        1(wall);
        nFaces          3;
        startFace       2111;
        sampleMode      nearestPatchFace;
        sampleRegion    region518;
        samplePatch     region518_to_region507;
    }
    region507_to_region517
    {
        type            mappedWall;
        inGroups        1(wall);
        nFaces          2;
        startFace       2114;
        sampleMode      nearestPatchFace;
        sampleRegion    region517;
        samplePatch     region517_to_region507;
    }
    region507_to_Ni
    {
        type            mappedWall;
        inGroups        1(wall);
        nFaces          214;
        startFace       2116;
        sampleMode      nearestPatchFace;
        sampleRegion    Ni;
        samplePatch     Ni_to_region507;
    }
    region507_to_region541
    {
        type            mappedWall;
        inGroups        1(wall);
        nFaces          2;
        startFace       2330;
        sampleMode      nearestPatchFace;
        sampleRegion    region541;
        samplePatch     region541_to_region507;
    }
    region507_to_region509
    {
        type            mappedWall;
        inGroups        1(wall);
        nFaces          1;
        startFace       2332;
        sampleMode      nearestPatchFace;
        sampleRegion    region509;
        samplePatch     region509_to_region507;
    }
)

// ************************************************************************* //
