/*--------------------------------*- C++ -*----------------------------------*\
  =========                 |
  \\      /  F ield         | OpenFOAM: The Open Source CFD Toolbox
   \\    /   O peration     | Website:  https://openfoam.org
    \\  /    A nd           | Version:  6
     \\/     M anipulation  |
\*---------------------------------------------------------------------------*/
FoamFile
{
    version     2.0;
    format      ascii;
    class       polyBoundaryMesh;
    location    "constant/region494/polyMesh";
    object      boundary;
}
// * * * * * * * * * * * * * * * * * * * * * * * * * * * * * * * * * * * * * //

4
(
    region494_to_Ni
    {
        type            mappedWall;
        inGroups        1(wall);
        nFaces          2;
        startFace       0;
        sampleMode      nearestPatchFace;
        sampleRegion    Ni;
        samplePatch     Ni_to_region494;
    }
    region494_to_region492
    {
        type            mappedWall;
        inGroups        1(wall);
        nFaces          1;
        startFace       2;
        sampleMode      nearestPatchFace;
        sampleRegion    region492;
        samplePatch     region492_to_region494;
    }
    region494_to_region486
    {
        type            mappedWall;
        inGroups        1(wall);
        nFaces          1;
        startFace       3;
        sampleMode      nearestPatchFace;
        sampleRegion    region486;
        samplePatch     region486_to_region494;
    }
    region494_to_pore
    {
        type            mappedWall;
        inGroups        1(wall);
        nFaces          2;
        startFace       4;
        sampleMode      nearestPatchFace;
        sampleRegion    pore;
        samplePatch     pore_to_region494;
    }
)

// ************************************************************************* //
