/*--------------------------------*- C++ -*----------------------------------*\
  =========                 |
  \\      /  F ield         | OpenFOAM: The Open Source CFD Toolbox
   \\    /   O peration     | Website:  https://openfoam.org
    \\  /    A nd           | Version:  6
     \\/     M anipulation  |
\*---------------------------------------------------------------------------*/
FoamFile
{
    version     2.0;
    format      ascii;
    class       polyBoundaryMesh;
    location    "constant/region788/polyMesh";
    object      boundary;
}
// * * * * * * * * * * * * * * * * * * * * * * * * * * * * * * * * * * * * * //

2
(
    region788_to_region773
    {
        type            mappedWall;
        inGroups        1(wall);
        nFaces          1;
        startFace       0;
        sampleMode      nearestPatchFace;
        sampleRegion    region773;
        samplePatch     region773_to_region788;
    }
    region788_to_YSZ
    {
        type            mappedWall;
        inGroups        1(wall);
        nFaces          5;
        startFace       1;
        sampleMode      nearestPatchFace;
        sampleRegion    YSZ;
        samplePatch     YSZ_to_region788;
    }
)

// ************************************************************************* //
