/*--------------------------------*- C++ -*----------------------------------*\
  =========                 |
  \\      /  F ield         | OpenFOAM: The Open Source CFD Toolbox
   \\    /   O peration     | Website:  https://openfoam.org
    \\  /    A nd           | Version:  6
     \\/     M anipulation  |
\*---------------------------------------------------------------------------*/
FoamFile
{
    version     2.0;
    format      ascii;
    class       volScalarField;
    location    "0/gas";
    object      T;
}
// * * * * * * * * * * * * * * * * * * * * * * * * * * * * * * * * * * * * * //

dimensions      [ 0 0 0 0 0 0 0 ];

internalField   uniform 1073.0;

boundaryField
{
    #includeEtc "caseDicts/setConstraintTypes"

   

    inlet_anode
    {
        type            fixedValue;
        value           uniform  1073.0;



    }
    outlet_anode
    {

        type            inletOutlet;
        value           $internalField;
        inletValue      $internalField;

    }
    inlet_side
    {
        type            fixedValue;
        value           uniform  1073.0;
    }
    outlet_side
    {
        type            fixedValue;
        value           uniform  1073.0;
    }
    symmetry_left
    {
        type            fixedValue;
        value           uniform  1073.0;
    }
    symmetry_right
    {
        type            fixedValue;
        value           uniform  1073.0;
    }
    anodePart_to_membrane
    {
        type            compressible::turbulentTemperatureCoupledBaffleMixed;
        value           $internalField;
        Tnbr            T;
        kappaMethod     fluidThermo; 
    }
    anodePart_to_anodeBP
    {
        type            compressible::turbulentTemperatureCoupledBaffleMixed;
        value           $internalField;
        Tnbr            T;
        kappaMethod     fluidThermo;   
    }

}


// ************************************************************************* //
