/*--------------------------------*- C++ -*----------------------------------*\
  =========                 |
  \\      /  F ield         | OpenFOAM: The Open Source CFD Toolbox
   \\    /   O peration     | Website:  https://openfoam.org
    \\  /    A nd           | Version:  6
     \\/     M anipulation  |
\*---------------------------------------------------------------------------*/
FoamFile
{
    version     2.0;
    format      ascii;
    class       polyBoundaryMesh;
    location    "constant/region372/polyMesh";
    object      boundary;
}
// * * * * * * * * * * * * * * * * * * * * * * * * * * * * * * * * * * * * * //

3
(
    symmetry_left
    {
        type            patch;
        nFaces          2;
        startFace       2;
    }
    region372_to_region313
    {
        type            mappedWall;
        inGroups        1(wall);
        nFaces          6;
        startFace       4;
        sampleMode      nearestPatchFace;
        sampleRegion    region313;
        samplePatch     region313_to_region372;
    }
    region372_to_YSZ
    {
        type            mappedWall;
        inGroups        1(wall);
        nFaces          6;
        startFace       10;
        sampleMode      nearestPatchFace;
        sampleRegion    YSZ;
        samplePatch     YSZ_to_region372;
    }
)

// ************************************************************************* //
