/*--------------------------------*- C++ -*----------------------------------*\
  =========                 |
  \\      /  F ield         | OpenFOAM: The Open Source CFD Toolbox
   \\    /   O peration     | Website:  https://openfoam.org
    \\  /    A nd           | Version:  6
     \\/     M anipulation  |
\*---------------------------------------------------------------------------*/
FoamFile
{
    version     2.0;
    format      ascii;
    class       polyBoundaryMesh;
    location    "constant/region984/polyMesh";
    object      boundary;
}
// * * * * * * * * * * * * * * * * * * * * * * * * * * * * * * * * * * * * * //

3
(
    region984_to_membrane
    {
        type            mappedWall;
        inGroups        1(wall);
        nFaces          1;
        startFace       0;
        sampleMode      nearestPatchFace;
        sampleRegion    membrane;
        samplePatch     membrane_to_region984;
    }
    region984_to_region452
    {
        type            mappedWall;
        inGroups        1(wall);
        nFaces          2;
        startFace       1;
        sampleMode      nearestPatchFace;
        sampleRegion    region452;
        samplePatch     region452_to_region984;
    }
    region984_to_YSZ
    {
        type            mappedWall;
        inGroups        1(wall);
        nFaces          3;
        startFace       3;
        sampleMode      nearestPatchFace;
        sampleRegion    YSZ;
        samplePatch     YSZ_to_region984;
    }
)

// ************************************************************************* //
