/*--------------------------------*- C++ -*----------------------------------*\
  =========                 |
  \\      /  F ield         | OpenFOAM: The Open Source CFD Toolbox
   \\    /   O peration     | Website:  https://openfoam.org
    \\  /    A nd           | Version:  6
     \\/     M anipulation  |
\*---------------------------------------------------------------------------*/
FoamFile
{
    version     2.0;
    format      ascii;
    class       polyBoundaryMesh;
    location    "constant/region955/polyMesh";
    object      boundary;
}
// * * * * * * * * * * * * * * * * * * * * * * * * * * * * * * * * * * * * * //

3
(
    region955_to_membrane
    {
        type            mappedWall;
        inGroups        1(wall);
        nFaces          3;
        startFace       2;
        sampleMode      nearestPatchFace;
        sampleRegion    membrane;
        samplePatch     membrane_to_region955;
    }
    region955_to_YSZ
    {
        type            mappedWall;
        inGroups        1(wall);
        nFaces          5;
        startFace       5;
        sampleMode      nearestPatchFace;
        sampleRegion    YSZ;
        samplePatch     YSZ_to_region955;
    }
    region955_to_region65
    {
        type            mappedWall;
        inGroups        1(wall);
        nFaces          6;
        startFace       10;
        sampleMode      nearestPatchFace;
        sampleRegion    region65;
        samplePatch     region65_to_region955;
    }
)

// ************************************************************************* //
